


 32 32  0  0  0  0  0  0  0  0999 V2000
    0.5683    3.6914    1.0891 H   0  0  0  1  0  0  0  0  0  0  0  0
    0.8510    1.5834    0.9759 C   0  0  0  1  0  0  0  0  0  0  0  0
   -0.0901    3.0365   -0.7714 N   0  0  0  1  0  0  0  0  0  0  0  0
    0.0542    2.8525    0.6684 C   0  0  0  1  0  0  0  0  0  0  0  0
    1.4508    1.4639    2.0434 O   0  0  0  1  0  0  0  0  0  0  0  0
    0.7572    0.6219    0.0438 N   0  0  0  1  0  0  0  0  0  0  0  0
   -0.9995    3.0700   -1.1350 H   0  0  0  1  0  0  0  0  0  0  0  0
    0.9342    3.1641   -1.6402 C   0  0  0  1  0  0  0  0  0  0  0  0
    1.4248   -0.6637    0.1832 C   0  0  0  1  0  0  0  0  0  0  0  0
    0.6073    3.4681   -3.0847 C   0  0  0  1  0  0  0  0  0  0  0  0
    2.1008    3.0374   -1.2705 O   0  0  0  1  0  0  0  0  0  0  0  0
    0.2205    0.7916   -0.7584 H   0  0  0  1  0  0  0  0  0  0  0  0
    1.6660   -0.8312    1.2121 H   0  0  0  1  0  0  0  0  0  0  0  0
    2.3232   -0.6636   -0.3980 H   0  0  0  1  0  0  0  0  0  0  0  0
    0.7761   -1.4414   -0.1620 H   0  0  0  1  0  0  0  0  0  0  0  0
    0.1893    4.4504   -3.1573 H   0  0  0  1  0  0  0  0  0  0  0  0
   -0.0999    2.7521   -3.4484 H   0  0  0  1  0  0  0  0  0  0  0  0
    1.5010    3.4168   -3.6708 H   0  0  0  1  0  0  0  0  0  0  0  0
   -4.3595    8.2718    0.4139 I   0  0  0  1  0  0  0  0  0  0  0  0
   -3.4205    6.4235    0.6787 C   0  0  0  1  0  0  0  0  0  0  0  0
   -2.5728    6.2758    1.7655 C   0  0  0  1  0  0  0  0  0  0  0  0
   -1.9252    5.0735    1.9786 C   0  0  0  1  0  0  0  0  0  0  0  0
   -2.1277    4.0137    1.1085 C   0  0  0  1  0  0  0  0  0  0  0  0
   -2.9729    4.1607    0.0248 C   0  0  0  1  0  0  0  0  0  0  0  0
   -3.6222    5.3667   -0.1888 C   0  0  0  1  0  0  0  0  0  0  0  0
   -1.3282    2.7438    1.3252 C   0  0  0  1  0  0  0  0  0  0  0  0
   -2.4240    7.0697    2.4206 H   0  0  0  1  0  0  0  0  0  0  0  0
   -1.2861    4.9640    2.7917 H   0  0  0  1  0  0  0  0  0  0  0  0
   -3.1216    3.3668   -0.6303 H   0  0  0  1  0  0  0  0  0  0  0  0
   -4.2613    5.4762   -1.0020 H   0  0  0  1  0  0  0  0  0  0  0  0
   -1.2056    2.5814    2.3757 H   0  0  0  1  0  0  0  0  0  0  0  0
   -1.8568    1.9187    0.8955 H   0  0  0  1  0  0  0  0  0  0  0  0
  1  4  1  0  0  0  0
  2  4  1  0  0  0  0
  2  5  2  0  0  0  0
  2  6  1  0  0  0  0
  3  4  1  0  0  0  0
  3  7  1  0  0  0  0
  3  8  1  0  0  0  0
  4 26  1  0  0  0  0
  6  9  1  0  0  0  0
  6 12  1  0  0  0  0
  8 10  1  0  0  0  0
  8 11  2  0  0  0  0
  9 13  1  0  0  0  0
  9 14  1  0  0  0  0
  9 15  1  0  0  0  0
 10 16  1  0  0  0  0
 10 17  1  0  0  0  0
 10 18  1  0  0  0  0
 19 20  1  0  0  0  0
 20 21  4  0  0  0  0
 20 25  4  0  0  0  0
 21 22  4  0  0  0  0
 21 27  1  0  0  0  0
 22 23  4  0  0  0  0
 22 28  1  0  0  0  0
 23 24  4  0  0  0  0
 23 26  1  0  0  0  0
 24 25  4  0  0  0  0
 24 29  1  0  0  0  0
 25 30  1  0  0  0  0
 26 31  1  0  0  0  0
 26 32  1  0  0  0  0
M  END
> <BCLConfClusterSize>
1

> <ConfClashScore>
0 

> <ConfOneFourInteractionScore>
-0.960318 

> <ConfScore>
-0.307138 

> <ConfScorePBest>
0.00783383 

> <ConfTolerance>
0.13686 

> <RosettaParamsInstructions>
M  ROOT 3
M  POLY_N_BB 3
M  POLY_CA_BB 4
M  POLY_C_BB 2
M  POLY_O_BB 5
M  POLY_IGNORE 9 10 11 12 13 14 15 16 17 18 
M  POLY_UPPER 6
M  POLY_LOWER 8
M  POLY_CHG 0
M  POLY_PROPERTIES ALPHA_AA L_AA PROTEIN AROMATIC POLYMER 
M  END

$$$$



 32 32  0  0  0  0  0  0  0  0999 V2000
   -3.1262    1.4908    1.6359 H   0  0  0  1  0  0  0  0  0  0  0  0
   -1.4000    0.4494    2.3161 C   0  0  0  1  0  0  0  0  0  0  0  0
   -2.5082    2.2526    3.4753 N   0  0  0  1  0  0  0  0  0  0  0  0
   -2.2176    1.7162    2.1541 C   0  0  0  1  0  0  0  0  0  0  0  0
   -1.3143   -0.3684    1.4149 O   0  0  0  1  0  0  0  0  0  0  0  0
   -0.7893    0.2973    3.5019 N   0  0  0  1  0  0  0  0  0  0  0  0
   -2.2584    3.1745    3.6945 H   0  0  0  1  0  0  0  0  0  0  0  0
   -3.1137    1.4925    4.3882 C   0  0  0  1  0  0  0  0  0  0  0  0
   -0.0682   -0.9311    3.8001 C   0  0  0  1  0  0  0  0  0  0  0  0
   -3.2301    2.0616    5.8024 C   0  0  0  1  0  0  0  0  0  0  0  0
   -3.4936    0.3476    4.1463 O   0  0  0  1  0  0  0  0  0  0  0  0
   -0.8291    1.0149    4.1681 H   0  0  0  1  0  0  0  0  0  0  0  0
    0.3401   -1.3339    2.8967 H   0  0  0  1  0  0  0  0  0  0  0  0
   -0.7393   -1.6416    4.2356 H   0  0  0  1  0  0  0  0  0  0  0  0
    0.7248   -0.7211    4.4870 H   0  0  0  1  0  0  0  0  0  0  0  0
   -3.8732    2.9168    5.7915 H   0  0  0  1  0  0  0  0  0  0  0  0
   -2.2606    2.3493    6.1518 H   0  0  0  1  0  0  0  0  0  0  0  0
   -3.6382    1.3172    6.4537 H   0  0  0  1  0  0  0  0  0  0  0  0
   -4.4032    8.2433    0.3789 I   0  0  0  1  0  0  0  0  0  0  0  0
   -3.4175    6.4271    0.6918 C   0  0  0  1  0  0  0  0  0  0  0  0
   -2.5641    6.2783    1.7740 C   0  0  0  1  0  0  0  0  0  0  0  0
   -1.9084    5.0788    1.9774 C   0  0  0  1  0  0  0  0  0  0  0  0
   -2.1083    4.0227    1.1021 C   0  0  0  1  0  0  0  0  0  0  0  0
   -2.9591    4.1708    0.0229 C   0  0  0  1  0  0  0  0  0  0  0  0
   -3.6167    5.3740   -0.1809 C   0  0  0  1  0  0  0  0  0  0  0  0
   -1.3965    2.7096    1.3270 C   0  0  0  1  0  0  0  0  0  0  0  0
   -2.4173    7.0693    2.4330 H   0  0  0  1  0  0  0  0  0  0  0  0
   -1.2651    4.9685    2.7871 H   0  0  0  1  0  0  0  0  0  0  0  0
   -3.1058    3.3797   -0.6360 H   0  0  0  1  0  0  0  0  0  0  0  0
   -4.2600    5.4843   -0.9906 H   0  0  0  1  0  0  0  0  0  0  0  0
   -1.1866    2.2685    0.3750 H   0  0  0  1  0  0  0  0  0  0  0  0
   -0.4783    2.9036    1.8410 H   0  0  0  1  0  0  0  0  0  0  0  0
  1  4  1  0  0  0  0
  2  4  1  0  0  0  0
  2  5  2  0  0  0  0
  2  6  1  0  0  0  0
  3  4  1  0  0  0  0
  3  7  1  0  0  0  0
  3  8  1  0  0  0  0
  4 26  1  0  0  0  0
  6  9  1  0  0  0  0
  6 12  1  0  0  0  0
  8 10  1  0  0  0  0
  8 11  2  0  0  0  0
  9 13  1  0  0  0  0
  9 14  1  0  0  0  0
  9 15  1  0  0  0  0
 10 16  1  0  0  0  0
 10 17  1  0  0  0  0
 10 18  1  0  0  0  0
 19 20  1  0  0  0  0
 20 21  4  0  0  0  0
 20 25  4  0  0  0  0
 21 22  4  0  0  0  0
 21 27  1  0  0  0  0
 22 23  4  0  0  0  0
 22 28  1  0  0  0  0
 23 24  4  0  0  0  0
 23 26  1  0  0  0  0
 24 25  4  0  0  0  0
 24 29  1  0  0  0  0
 25 30  1  0  0  0  0
 26 31  1  0  0  0  0
 26 32  1  0  0  0  0
M  END
> <BCLConfClusterSize>
1

> <ConfClashScore>
0 

> <ConfOneFourInteractionScore>
-0.94165 

> <ConfScore>
-0.307138 

> <ConfScorePBest>
0.00780535 

> <ConfTolerance>
0.168014 

> <RosettaParamsInstructions>
M  ROOT 3
M  POLY_N_BB 3
M  POLY_CA_BB 4
M  POLY_C_BB 2
M  POLY_O_BB 5
M  POLY_IGNORE 9 10 11 12 13 14 15 16 17 18 
M  POLY_UPPER 6
M  POLY_LOWER 8
M  POLY_CHG 0
M  POLY_PROPERTIES ALPHA_AA L_AA PROTEIN AROMATIC POLYMER 
M  END

$$$$



 32 32  0  0  0  0  0  0  0  0999 V2000
    0.5466    3.4927    1.1376 H   0  0  0  1  0  0  0  0  0  0  0  0
    0.7294    1.3966    1.0950 C   0  0  0  1  0  0  0  0  0  0  0  0
   -0.0833    2.8740   -0.7232 N   0  0  0  1  0  0  0  0  0  0  0  0
   -0.0036    2.6757    0.7196 C   0  0  0  1  0  0  0  0  0  0  0  0
    1.5525    1.3828    2.0093 O   0  0  0  1  0  0  0  0  0  0  0  0
    0.4696    0.3483    0.3166 N   0  0  0  1  0  0  0  0  0  0  0  0
   -0.9749    2.8923   -1.1295 H   0  0  0  1  0  0  0  0  0  0  0  0
    0.9677    3.0325   -1.5327 C   0  0  0  1  0  0  0  0  0  0  0  0
    1.0876   -0.9625    0.4507 C   0  0  0  1  0  0  0  0  0  0  0  0
    0.6828    3.1324   -3.0366 C   0  0  0  1  0  0  0  0  0  0  0  0
    2.1266    3.0169   -1.1199 O   0  0  0  1  0  0  0  0  0  0  0  0
   -0.1872    0.4683   -0.4007 H   0  0  0  1  0  0  0  0  0  0  0  0
    1.3160   -1.1461    1.4798 H   0  0  0  1  0  0  0  0  0  0  0  0
    1.9889   -0.9922   -0.1252 H   0  0  0  1  0  0  0  0  0  0  0  0
    0.4123   -1.7129    0.0962 H   0  0  0  1  0  0  0  0  0  0  0  0
    0.1269    2.2745   -3.3526 H   0  0  0  1  0  0  0  0  0  0  0  0
    1.6080    3.1749   -3.5726 H   0  0  0  1  0  0  0  0  0  0  0  0
    0.1149    4.0176   -3.2338 H   0  0  0  1  0  0  0  0  0  0  0  0
   -4.4032    8.2433    0.3789 I   0  0  0  1  0  0  0  0  0  0  0  0
   -3.4175    6.4271    0.6918 C   0  0  0  1  0  0  0  0  0  0  0  0
   -2.5641    6.2783    1.7740 C   0  0  0  1  0  0  0  0  0  0  0  0
   -1.9084    5.0788    1.9774 C   0  0  0  1  0  0  0  0  0  0  0  0
   -2.1083    4.0227    1.1021 C   0  0  0  1  0  0  0  0  0  0  0  0
   -2.9591    4.1708    0.0229 C   0  0  0  1  0  0  0  0  0  0  0  0
   -3.6167    5.3740   -0.1809 C   0  0  0  1  0  0  0  0  0  0  0  0
   -1.3965    2.7096    1.3270 C   0  0  0  1  0  0  0  0  0  0  0  0
   -2.4173    7.0693    2.4330 H   0  0  0  1  0  0  0  0  0  0  0  0
   -1.2651    4.9685    2.7871 H   0  0  0  1  0  0  0  0  0  0  0  0
   -3.1058    3.3797   -0.6360 H   0  0  0  1  0  0  0  0  0  0  0  0
   -4.2600    5.4843   -0.9906 H   0  0  0  1  0  0  0  0  0  0  0  0
   -1.3127    2.5438    2.3807 H   0  0  0  1  0  0  0  0  0  0  0  0
   -1.9788    1.9269    0.8874 H   0  0  0  1  0  0  0  0  0  0  0  0
  1  4  1  0  0  0  0
  2  4  1  0  0  0  0
  2  5  2  0  0  0  0
  2  6  1  0  0  0  0
  3  4  1  0  0  0  0
  3  7  1  0  0  0  0
  3  8  1  0  0  0  0
  4 26  1  0  0  0  0
  6  9  1  0  0  0  0
  6 12  1  0  0  0  0
  8 10  1  0  0  0  0
  8 11  2  0  0  0  0
  9 13  1  0  0  0  0
  9 14  1  0  0  0  0
  9 15  1  0  0  0  0
 10 16  1  0  0  0  0
 10 17  1  0  0  0  0
 10 18  1  0  0  0  0
 19 20  1  0  0  0  0
 20 21  4  0  0  0  0
 20 25  4  0  0  0  0
 21 22  4  0  0  0  0
 21 27  1  0  0  0  0
 22 23  4  0  0  0  0
 22 28  1  0  0  0  0
 23 24  4  0  0  0  0
 23 26  1  0  0  0  0
 24 25  4  0  0  0  0
 24 29  1  0  0  0  0
 25 30  1  0  0  0  0
 26 31  1  0  0  0  0
 26 32  1  0  0  0  0
M  END
> <BCLConfClusterSize>
1

> <ConfClashScore>
0 

> <ConfOneFourInteractionScore>
-0.960318 

> <ConfScore>
-0.305883 

> <ConfScorePBest>
0.00777687 

> <ConfTolerance>
0.128687 

> <RosettaParamsInstructions>
M  ROOT 3
M  POLY_N_BB 3
M  POLY_CA_BB 4
M  POLY_C_BB 2
M  POLY_O_BB 5
M  POLY_IGNORE 9 10 11 12 13 14 15 16 17 18 
M  POLY_UPPER 6
M  POLY_LOWER 8
M  POLY_CHG 0
M  POLY_PROPERTIES ALPHA_AA L_AA PROTEIN AROMATIC POLYMER 
M  END

$$$$



 32 32  0  0  0  0  0  0  0  0999 V2000
   -3.2695    1.7914    1.9844 H   0  0  0  1  0  0  0  0  0  0  0  0
   -1.6908    0.4025    2.3006 C   0  0  0  1  0  0  0  0  0  0  0  0
   -2.2059    2.3719    3.6705 N   0  0  0  1  0  0  0  0  0  0  0  0
   -2.2555    1.8197    2.3250 C   0  0  0  1  0  0  0  0  0  0  0  0
   -2.0225   -0.3835    1.4277 O   0  0  0  1  0  0  0  0  0  0  0  0
   -0.7700    0.1517    3.2356 N   0  0  0  1  0  0  0  0  0  0  0  0
   -1.7277    3.2144    3.8187 H   0  0  0  1  0  0  0  0  0  0  0  0
   -2.8081    1.7512    4.7439 C   0  0  0  1  0  0  0  0  0  0  0  0
   -0.0773   -1.1252    3.3218 C   0  0  0  1  0  0  0  0  0  0  0  0
   -2.6178    2.4155    6.0785 C   0  0  0  1  0  0  0  0  0  0  0  0
   -3.4467    0.7280    4.5778 O   0  0  0  1  0  0  0  0  0  0  0  0
   -0.5535    0.8521    3.8861 H   0  0  0  1  0  0  0  0  0  0  0  0
    0.1268   -1.4881    2.3361 H   0  0  0  1  0  0  0  0  0  0  0  0
   -0.6925   -1.8302    3.8409 H   0  0  0  1  0  0  0  0  0  0  0  0
    0.8433   -0.9963    3.8518 H   0  0  0  1  0  0  0  0  0  0  0  0
   -1.5809    2.3974    6.3420 H   0  0  0  1  0  0  0  0  0  0  0  0
   -3.1834    1.8922    6.8209 H   0  0  0  1  0  0  0  0  0  0  0  0
   -2.9537    3.4299    6.0229 H   0  0  0  1  0  0  0  0  0  0  0  0
   -4.4198    8.2362    0.3925 I   0  0  0  1  0  0  0  0  0  0  0  0
   -3.4203    6.4256    0.6938 C   0  0  0  1  0  0  0  0  0  0  0  0
   -2.5620    6.2780    1.7722 C   0  0  0  1  0  0  0  0  0  0  0  0
   -1.8972    5.0822    1.9680 C   0  0  0  1  0  0  0  0  0  0  0  0
   -2.0930    4.0286    1.0888 C   0  0  0  1  0  0  0  0  0  0  0  0
   -2.9488    4.1755    0.0135 C   0  0  0  1  0  0  0  0  0  0  0  0
   -3.6155    5.3749   -0.1827 C   0  0  0  1  0  0  0  0  0  0  0  0
   -1.4419    2.6948    1.3692 C   0  0  0  1  0  0  0  0  0  0  0  0
   -2.4182    7.0672    2.4341 H   0  0  0  1  0  0  0  0  0  0  0  0
   -1.2501    4.9729    2.7748 H   0  0  0  1  0  0  0  0  0  0  0  0
   -3.0926    3.3862   -0.6483 H   0  0  0  1  0  0  0  0  0  0  0  0
   -4.2626    5.4842   -0.9895 H   0  0  0  1  0  0  0  0  0  0  0  0
   -1.3259    2.1712    0.4433 H   0  0  0  1  0  0  0  0  0  0  0  0
   -0.4798    2.8701    1.8034 H   0  0  0  1  0  0  0  0  0  0  0  0
  1  4  1  0  0  0  0
  2  4  1  0  0  0  0
  2  5  2  0  0  0  0
  2  6  1  0  0  0  0
  3  4  1  0  0  0  0
  3  7  1  0  0  0  0
  3  8  1  0  0  0  0
  4 26  1  0  0  0  0
  6  9  1  0  0  0  0
  6 12  1  0  0  0  0
  8 10  1  0  0  0  0
  8 11  2  0  0  0  0
  9 13  1  0  0  0  0
  9 14  1  0  0  0  0
  9 15  1  0  0  0  0
 10 16  1  0  0  0  0
 10 17  1  0  0  0  0
 10 18  1  0  0  0  0
 19 20  1  0  0  0  0
 20 21  4  0  0  0  0
 20 25  4  0  0  0  0
 21 22  4  0  0  0  0
 21 27  1  0  0  0  0
 22 23  4  0  0  0  0
 22 28  1  0  0  0  0
 23 24  4  0  0  0  0
 23 26  1  0  0  0  0
 24 25  4  0  0  0  0
 24 29  1  0  0  0  0
 25 30  1  0  0  0  0
 26 31  1  0  0  0  0
 26 32  1  0  0  0  0
M  END
> <BCLConfClusterSize>
1

> <ConfClashScore>
0 

> <ConfOneFourInteractionScore>
-0.956443 

> <ConfScore>
-0.305883 

> <ConfScorePBest>
0.00774839 

> <ConfTolerance>
0.140516 

> <RosettaParamsInstructions>
M  ROOT 3
M  POLY_N_BB 3
M  POLY_CA_BB 4
M  POLY_C_BB 2
M  POLY_O_BB 5
M  POLY_IGNORE 9 10 11 12 13 14 15 16 17 18 
M  POLY_UPPER 6
M  POLY_LOWER 8
M  POLY_CHG 0
M  POLY_PROPERTIES ALPHA_AA L_AA PROTEIN AROMATIC POLYMER 
M  END

$$$$



 32 32  0  0  0  0  0  0  0  0999 V2000
   -2.8729    1.2555    1.1269 H   0  0  0  1  0  0  0  0  0  0  0  0
   -1.2722    0.4558    2.2746 C   0  0  0  1  0  0  0  0  0  0  0  0
   -2.9386    2.0910    3.0268 N   0  0  0  1  0  0  0  0  0  0  0  0
   -2.1928    1.6040    1.8759 C   0  0  0  1  0  0  0  0  0  0  0  0
   -1.0376   -0.4653    1.4934 O   0  0  0  1  0  0  0  0  0  0  0  0
   -0.7241    0.4810    3.5072 N   0  0  0  1  0  0  0  0  0  0  0  0
   -2.8664    3.0372    3.2713 H   0  0  0  1  0  0  0  0  0  0  0  0
   -3.7183    1.2928    3.7617 C   0  0  0  1  0  0  0  0  0  0  0  0
    0.0594   -0.6499    3.9817 C   0  0  0  1  0  0  0  0  0  0  0  0
   -4.4506    1.9617    4.9087 C   0  0  0  1  0  0  0  0  0  0  0  0
   -3.8453    0.1000    3.5392 O   0  0  0  1  0  0  0  0  0  0  0  0
   -0.8539    1.2624    4.0842 H   0  0  0  1  0  0  0  0  0  0  0  0
   -0.1742   -1.5161    3.3986 H   0  0  0  1  0  0  0  0  0  0  0  0
   -0.1729   -0.8385    5.0090 H   0  0  0  1  0  0  0  0  0  0  0  0
    1.1015   -0.4266    3.8863 H   0  0  0  1  0  0  0  0  0  0  0  0
   -3.7435    2.2855    5.6435 H   0  0  0  1  0  0  0  0  0  0  0  0
   -5.1312    1.2649    5.3517 H   0  0  0  1  0  0  0  0  0  0  0  0
   -4.9940    2.8066    4.5402 H   0  0  0  1  0  0  0  0  0  0  0  0
   -4.3863    8.2498    0.3656 I   0  0  0  1  0  0  0  0  0  0  0  0
   -3.4144    6.4282    0.6898 C   0  0  0  1  0  0  0  0  0  0  0  0
   -2.5661    6.2780    1.7758 C   0  0  0  1  0  0  0  0  0  0  0  0
   -1.9195    5.0749    1.9867 C   0  0  0  1  0  0  0  0  0  0  0  0
   -2.1235    4.0165    1.1151 C   0  0  0  1  0  0  0  0  0  0  0  0
   -2.9693    4.1659    0.0322 C   0  0  0  1  0  0  0  0  0  0  0  0
   -3.6177    5.3728   -0.1792 C   0  0  0  1  0  0  0  0  0  0  0  0
   -1.3527    2.7287    1.2851 C   0  0  0  1  0  0  0  0  0  0  0  0
   -2.4162    7.0709    2.4319 H   0  0  0  1  0  0  0  0  0  0  0  0
   -1.2800    4.9636    2.7992 H   0  0  0  1  0  0  0  0  0  0  0  0
   -3.1191    3.3731   -0.6239 H   0  0  0  1  0  0  0  0  0  0  0  0
   -4.2572    5.4840   -0.9917 H   0  0  0  1  0  0  0  0  0  0  0  0
   -0.9934    2.4178    0.3263 H   0  0  0  1  0  0  0  0  0  0  0  0
   -0.5229    2.9117    1.9353 H   0  0  0  1  0  0  0  0  0  0  0  0
  1  4  1  0  0  0  0
  2  4  1  0  0  0  0
  2  5  2  0  0  0  0
  2  6  1  0  0  0  0
  3  4  1  0  0  0  0
  3  7  1  0  0  0  0
  3  8  1  0  0  0  0
  4 26  1  0  0  0  0
  6  9  1  0  0  0  0
  6 12  1  0  0  0  0
  8 10  1  0  0  0  0
  8 11  2  0  0  0  0
  9 13  1  0  0  0  0
  9 14  1  0  0  0  0
  9 15  1  0  0  0  0
 10 16  1  0  0  0  0
 10 17  1  0  0  0  0
 10 18  1  0  0  0  0
 19 20  1  0  0  0  0
 20 21  4  0  0  0  0
 20 25  4  0  0  0  0
 21 22  4  0  0  0  0
 21 27  1  0  0  0  0
 22 23  4  0  0  0  0
 22 28  1  0  0  0  0
 23 24  4  0  0  0  0
 23 26  1  0  0  0  0
 24 25  4  0  0  0  0
 24 29  1  0  0  0  0
 25 30  1  0  0  0  0
 26 31  1  0  0  0  0
 26 32  1  0  0  0  0
M  END
> <BCLConfClusterSize>
1

> <ConfClashScore>
0 

> <ConfOneFourInteractionScore>
-0.9468 

> <ConfScore>
-0.303049 

> <ConfScorePBest>
0.00771991 

> <ConfTolerance>
0.177739 

> <RosettaParamsInstructions>
M  ROOT 3
M  POLY_N_BB 3
M  POLY_CA_BB 4
M  POLY_C_BB 2
M  POLY_O_BB 5
M  POLY_IGNORE 9 10 11 12 13 14 15 16 17 18 
M  POLY_UPPER 6
M  POLY_LOWER 8
M  POLY_CHG 0
M  POLY_PROPERTIES ALPHA_AA L_AA PROTEIN AROMATIC POLYMER 
M  END

$$$$



 32 32  0  0  0  0  0  0  0  0999 V2000
   -3.0444    1.6158    1.8829 H   0  0  0  1  0  0  0  0  0  0  0  0
   -1.3590    0.3830    2.2116 C   0  0  0  1  0  0  0  0  0  0  0  0
   -2.0602    2.3093    3.5638 N   0  0  0  1  0  0  0  0  0  0  0  0
   -2.0380    1.7432    2.2233 C   0  0  0  1  0  0  0  0  0  0  0  0
   -0.5933    0.0723    3.1231 O   0  0  0  1  0  0  0  0  0  0  0  0
   -1.7053   -0.4544    1.2299 N   0  0  0  1  0  0  0  0  0  0  0  0
   -1.2382    2.7021    3.9249 H   0  0  0  1  0  0  0  0  0  0  0  0
   -3.1714    2.3121    4.3255 C   0  0  0  1  0  0  0  0  0  0  0  0
   -1.0435   -1.7442    1.1021 C   0  0  0  1  0  0  0  0  0  0  0  0
   -2.9670    2.9202    5.6994 C   0  0  0  1  0  0  0  0  0  0  0  0
   -4.2642    1.8715    3.9714 O   0  0  0  1  0  0  0  0  0  0  0  0
   -2.4065   -0.1995    0.5944 H   0  0  0  1  0  0  0  0  0  0  0  0
   -0.0122   -1.6445    1.3694 H   0  0  0  1  0  0  0  0  0  0  0  0
   -1.1183   -2.0844    0.0904 H   0  0  0  1  0  0  0  0  0  0  0  0
   -1.5135   -2.4519    1.7526 H   0  0  0  1  0  0  0  0  0  0  0  0
   -2.6575    3.9393    5.5966 H   0  0  0  1  0  0  0  0  0  0  0  0
   -2.2138    2.3702    6.2241 H   0  0  0  1  0  0  0  0  0  0  0  0
   -3.8853    2.8801    6.2472 H   0  0  0  1  0  0  0  0  0  0  0  0
   -4.3621    8.2694    0.4098 I   0  0  0  1  0  0  0  0  0  0  0  0
   -3.4200    6.4234    0.6794 C   0  0  0  1  0  0  0  0  0  0  0  0
   -2.5730    6.2795    1.7672 C   0  0  0  1  0  0  0  0  0  0  0  0
   -1.9235    5.0788    1.9835 C   0  0  0  1  0  0  0  0  0  0  0  0
   -2.1234    4.0167    1.1154 C   0  0  0  1  0  0  0  0  0  0  0  0
   -2.9679    4.1600    0.0307 C   0  0  0  1  0  0  0  0  0  0  0  0
   -3.6192    5.3643   -0.1861 C   0  0  0  1  0  0  0  0  0  0  0  0
   -1.3494    2.7316    1.2912 C   0  0  0  1  0  0  0  0  0  0  0  0
   -2.4262    7.0751    2.4207 H   0  0  0  1  0  0  0  0  0  0  0  0
   -1.2850    4.9722    2.7974 H   0  0  0  1  0  0  0  0  0  0  0  0
   -3.1146    3.3644   -0.6228 H   0  0  0  1  0  0  0  0  0  0  0  0
   -4.2577    5.4710   -1.0000 H   0  0  0  1  0  0  0  0  0  0  0  0
   -1.2322    2.2708    0.3327 H   0  0  0  1  0  0  0  0  0  0  0  0
   -0.3867    2.9663    1.6948 H   0  0  0  1  0  0  0  0  0  0  0  0
  1  4  1  0  0  0  0
  2  4  1  0  0  0  0
  2  5  2  0  0  0  0
  2  6  1  0  0  0  0
  3  4  1  0  0  0  0
  3  7  1  0  0  0  0
  3  8  1  0  0  0  0
  4 26  1  0  0  0  0
  6  9  1  0  0  0  0
  6 12  1  0  0  0  0
  8 10  1  0  0  0  0
  8 11  2  0  0  0  0
  9 13  1  0  0  0  0
  9 14  1  0  0  0  0
  9 15  1  0  0  0  0
 10 16  1  0  0  0  0
 10 17  1  0  0  0  0
 10 18  1  0  0  0  0
 19 20  1  0  0  0  0
 20 21  4  0  0  0  0
 20 25  4  0  0  0  0
 21 22  4  0  0  0  0
 21 27  1  0  0  0  0
 22 23  4  0  0  0  0
 22 28  1  0  0  0  0
 23 24  4  0  0  0  0
 23 26  1  0  0  0  0
 24 25  4  0  0  0  0
 24 29  1  0  0  0  0
 25 30  1  0  0  0  0
 26 31  1  0  0  0  0
 26 32  1  0  0  0  0
M  END
> <BCLConfClusterSize>
1

> <ConfClashScore>
0 

> <ConfOneFourInteractionScore>
-0.981931 

> <ConfScore>
-0.294649 

> <ConfScorePBest>
0.00769143 

> <ConfTolerance>
0.166501 

> <RosettaParamsInstructions>
M  ROOT 3
M  POLY_N_BB 3
M  POLY_CA_BB 4
M  POLY_C_BB 2
M  POLY_O_BB 5
M  POLY_IGNORE 9 10 11 12 13 14 15 16 17 18 
M  POLY_UPPER 6
M  POLY_LOWER 8
M  POLY_CHG 0
M  POLY_PROPERTIES ALPHA_AA L_AA PROTEIN AROMATIC POLYMER 
M  END

$$$$



 32 32  0  0  0  0  0  0  0  0999 V2000
    0.4618    3.3288    0.5906 H   0  0  0  1  0  0  0  0  0  0  0  0
    0.6657    1.2678    0.8215 C   0  0  0  1  0  0  0  0  0  0  0  0
   -0.5468    2.4458   -0.9731 N   0  0  0  1  0  0  0  0  0  0  0  0
   -0.1684    2.4746    0.4557 C   0  0  0  1  0  0  0  0  0  0  0  0
    1.6725    1.3848    1.5151 O   0  0  0  1  0  0  0  0  0  0  0  0
    0.2748    0.0733    0.3682 N   0  0  0  1  0  0  0  0  0  0  0  0
   -1.4922    2.5389   -1.2140 H   0  0  0  1  0  0  0  0  0  0  0  0
    0.3552    2.2972   -1.9474 C   0  0  0  1  0  0  0  0  0  0  0  0
    0.9553   -1.1590    0.7374 C   0  0  0  1  0  0  0  0  0  0  0  0
   -0.1530    2.5306   -3.3568 C   0  0  0  1  0  0  0  0  0  0  0  0
    1.5275    1.9909   -1.7340 O   0  0  0  1  0  0  0  0  0  0  0  0
   -0.4969    0.0253   -0.2338 H   0  0  0  1  0  0  0  0  0  0  0  0
    1.0475   -1.2108    1.8022 H   0  0  0  1  0  0  0  0  0  0  0  0
    1.9290   -1.1750    0.2942 H   0  0  0  1  0  0  0  0  0  0  0  0
    0.3897   -1.9971    0.3874 H   0  0  0  1  0  0  0  0  0  0  0  0
   -1.0644    1.9892   -3.5021 H   0  0  0  1  0  0  0  0  0  0  0  0
    0.5787    2.1920   -4.0602 H   0  0  0  1  0  0  0  0  0  0  0  0
   -0.3320    3.5754   -3.5027 H   0  0  0  1  0  0  0  0  0  0  0  0
   -4.4032    8.2433    0.3789 I   0  0  0  1  0  0  0  0  0  0  0  0
   -3.4175    6.4271    0.6918 C   0  0  0  1  0  0  0  0  0  0  0  0
   -2.5641    6.2783    1.7740 C   0  0  0  1  0  0  0  0  0  0  0  0
   -1.9084    5.0788    1.9774 C   0  0  0  1  0  0  0  0  0  0  0  0
   -2.1083    4.0227    1.1021 C   0  0  0  1  0  0  0  0  0  0  0  0
   -2.9591    4.1708    0.0229 C   0  0  0  1  0  0  0  0  0  0  0  0
   -3.6167    5.3740   -0.1809 C   0  0  0  1  0  0  0  0  0  0  0  0
   -1.3965    2.7096    1.3270 C   0  0  0  1  0  0  0  0  0  0  0  0
   -2.4173    7.0693    2.4330 H   0  0  0  1  0  0  0  0  0  0  0  0
   -1.2651    4.9685    2.7871 H   0  0  0  1  0  0  0  0  0  0  0  0
   -3.1058    3.3797   -0.6360 H   0  0  0  1  0  0  0  0  0  0  0  0
   -4.2600    5.4843   -0.9906 H   0  0  0  1  0  0  0  0  0  0  0  0
   -1.0869    2.6731    2.3506 H   0  0  0  1  0  0  0  0  0  0  0  0
   -2.0927    1.9198    1.1360 H   0  0  0  1  0  0  0  0  0  0  0  0
  1  4  1  0  0  0  0
  2  4  1  0  0  0  0
  2  5  2  0  0  0  0
  2  6  1  0  0  0  0
  3  4  1  0  0  0  0
  3  7  1  0  0  0  0
  3  8  1  0  0  0  0
  4 26  1  0  0  0  0
  6  9  1  0  0  0  0
  6 12  1  0  0  0  0
  8 10  1  0  0  0  0
  8 11  2  0  0  0  0
  9 13  1  0  0  0  0
  9 14  1  0  0  0  0
  9 15  1  0  0  0  0
 10 16  1  0  0  0  0
 10 17  1  0  0  0  0
 10 18  1  0  0  0  0
 19 20  1  0  0  0  0
 20 21  4  0  0  0  0
 20 25  4  0  0  0  0
 21 22  4  0  0  0  0
 21 27  1  0  0  0  0
 22 23  4  0  0  0  0
 22 28  1  0  0  0  0
 23 24  4  0  0  0  0
 23 26  1  0  0  0  0
 24 25  4  0  0  0  0
 24 29  1  0  0  0  0
 25 30  1  0  0  0  0
 26 31  1  0  0  0  0
 26 32  1  0  0  0  0
M  END
> <BCLConfClusterSize>
1

> <ConfClashScore>
0 

> <ConfOneFourInteractionScore>
-0.960318 

> <ConfScore>
-0.290975 

> <ConfScorePBest>
0.00766295 

> <ConfTolerance>
0.195262 

> <RosettaParamsInstructions>
M  ROOT 3
M  POLY_N_BB 3
M  POLY_CA_BB 4
M  POLY_C_BB 2
M  POLY_O_BB 5
M  POLY_IGNORE 9 10 11 12 13 14 15 16 17 18 
M  POLY_UPPER 6
M  POLY_LOWER 8
M  POLY_CHG 0
M  POLY_PROPERTIES ALPHA_AA L_AA PROTEIN AROMATIC POLYMER 
M  END

$$$$



 32 32  0  0  0  0  0  0  0  0999 V2000
    0.5701    3.4728    1.3324 H   0  0  0  1  0  0  0  0  0  0  0  0
    0.6831    1.3673    1.3261 C   0  0  0  1  0  0  0  0  0  0  0  0
    0.1023    2.8503   -0.5803 N   0  0  0  1  0  0  0  0  0  0  0  0
    0.0499    2.6646    0.8622 C   0  0  0  1  0  0  0  0  0  0  0  0
    0.5958    0.3341    0.6639 O   0  0  0  1  0  0  0  0  0  0  0  0
    1.3268    1.4705    2.4996 N   0  0  0  1  0  0  0  0  0  0  0  0
   -0.3879    2.2399   -1.1699 H   0  0  0  1  0  0  0  0  0  0  0  0
    0.8171    3.8510   -1.1023 C   0  0  0  1  0  0  0  0  0  0  0  0
    1.9666    0.3661    3.1989 C   0  0  0  1  0  0  0  0  0  0  0  0
    0.8287    3.9323   -2.6164 C   0  0  0  1  0  0  0  0  0  0  0  0
    1.4320    4.6627   -0.4158 O   0  0  0  1  0  0  0  0  0  0  0  0
    1.3690    2.3562    2.9169 H   0  0  0  1  0  0  0  0  0  0  0  0
    1.3836   -0.5222    3.0727 H   0  0  0  1  0  0  0  0  0  0  0  0
    2.0405    0.5989    4.2407 H   0  0  0  1  0  0  0  0  0  0  0  0
    2.9460    0.2098    2.7975 H   0  0  0  1  0  0  0  0  0  0  0  0
   -0.1528    4.1720   -2.9687 H   0  0  0  1  0  0  0  0  0  0  0  0
    1.1325    2.9897   -3.0216 H   0  0  0  1  0  0  0  0  0  0  0  0
    1.5146    4.6925   -2.9273 H   0  0  0  1  0  0  0  0  0  0  0  0
   -4.4032    8.2433    0.3789 I   0  0  0  1  0  0  0  0  0  0  0  0
   -3.4175    6.4271    0.6918 C   0  0  0  1  0  0  0  0  0  0  0  0
   -2.5641    6.2783    1.7740 C   0  0  0  1  0  0  0  0  0  0  0  0
   -1.9084    5.0788    1.9774 C   0  0  0  1  0  0  0  0  0  0  0  0
   -2.1083    4.0227    1.1021 C   0  0  0  1  0  0  0  0  0  0  0  0
   -2.9591    4.1708    0.0229 C   0  0  0  1  0  0  0  0  0  0  0  0
   -3.6167    5.3740   -0.1809 C   0  0  0  1  0  0  0  0  0  0  0  0
   -1.3965    2.7096    1.3270 C   0  0  0  1  0  0  0  0  0  0  0  0
   -2.4173    7.0693    2.4330 H   0  0  0  1  0  0  0  0  0  0  0  0
   -1.2651    4.9685    2.7871 H   0  0  0  1  0  0  0  0  0  0  0  0
   -3.1058    3.3797   -0.6360 H   0  0  0  1  0  0  0  0  0  0  0  0
   -4.2600    5.4843   -0.9906 H   0  0  0  1  0  0  0  0  0  0  0  0
   -1.4126    2.5009    2.3763 H   0  0  0  1  0  0  0  0  0  0  0  0
   -1.9354    1.9480    0.8030 H   0  0  0  1  0  0  0  0  0  0  0  0
  1  4  1  0  0  0  0
  2  4  1  0  0  0  0
  2  5  2  0  0  0  0
  2  6  1  0  0  0  0
  3  4  1  0  0  0  0
  3  7  1  0  0  0  0
  3  8  1  0  0  0  0
  4 26  1  0  0  0  0
  6  9  1  0  0  0  0
  6 12  1  0  0  0  0
  8 10  1  0  0  0  0
  8 11  2  0  0  0  0
  9 13  1  0  0  0  0
  9 14  1  0  0  0  0
  9 15  1  0  0  0  0
 10 16  1  0  0  0  0
 10 17  1  0  0  0  0
 10 18  1  0  0  0  0
 19 20  1  0  0  0  0
 20 21  4  0  0  0  0
 20 25  4  0  0  0  0
 21 22  4  0  0  0  0
 21 27  1  0  0  0  0
 22 23  4  0  0  0  0
 22 28  1  0  0  0  0
 23 24  4  0  0  0  0
 23 26  1  0  0  0  0
 24 25  4  0  0  0  0
 24 29  1  0  0  0  0
 25 30  1  0  0  0  0
 26 31  1  0  0  0  0
 26 32  1  0  0  0  0
M  END
> <BCLConfClusterSize>
1

> <ConfClashScore>
0 

> <ConfOneFourInteractionScore>
-0.978127 

> <ConfScore>
-0.286657 

> <ConfScorePBest>
0.00763447 

> <ConfTolerance>
0.158191 

> <RosettaParamsInstructions>
M  ROOT 3
M  POLY_N_BB 3
M  POLY_CA_BB 4
M  POLY_C_BB 2
M  POLY_O_BB 5
M  POLY_IGNORE 9 10 11 12 13 14 15 16 17 18 
M  POLY_UPPER 6
M  POLY_LOWER 8
M  POLY_CHG 0
M  POLY_PROPERTIES ALPHA_AA L_AA PROTEIN AROMATIC POLYMER 
M  END

$$$$



 32 32  0  0  0  0  0  0  0  0999 V2000
   -3.1894    1.5020    1.3549 H   0  0  0  1  0  0  0  0  0  0  0  0
   -1.7754    0.5399    2.6025 C   0  0  0  1  0  0  0  0  0  0  0  0
   -3.1103    2.5095    3.1587 N   0  0  0  1  0  0  0  0  0  0  0  0
   -2.4530    1.7986    2.0722 C   0  0  0  1  0  0  0  0  0  0  0  0
   -1.1708    0.5436    3.6715 O   0  0  0  1  0  0  0  0  0  0  0  0
   -1.8864   -0.5519    1.8293 N   0  0  0  1  0  0  0  0  0  0  0  0
   -2.5765    2.7917    3.9306 H   0  0  0  1  0  0  0  0  0  0  0  0
   -4.4163    2.7909    3.1403 C   0  0  0  1  0  0  0  0  0  0  0  0
   -1.2861   -1.8266    2.1934 C   0  0  0  1  0  0  0  0  0  0  0  0
   -5.0248    3.4853    4.3653 C   0  0  0  1  0  0  0  0  0  0  0  0
   -5.1622    2.5263    2.1984 O   0  0  0  1  0  0  0  0  0  0  0  0
   -2.3892   -0.4884    0.9905 H   0  0  0  1  0  0  0  0  0  0  0  0
   -0.3085   -1.6593    2.5951 H   0  0  0  1  0  0  0  0  0  0  0  0
   -1.2130   -2.4472    1.3249 H   0  0  0  1  0  0  0  0  0  0  0  0
   -1.8952   -2.3106    2.9280 H   0  0  0  1  0  0  0  0  0  0  0  0
   -5.0007    2.8190    5.2022 H   0  0  0  1  0  0  0  0  0  0  0  0
   -6.0383    3.7562    4.1545 H   0  0  0  1  0  0  0  0  0  0  0  0
   -4.4600    4.3649    4.5936 H   0  0  0  1  0  0  0  0  0  0  0  0
   -4.4198    8.2362    0.3925 I   0  0  0  1  0  0  0  0  0  0  0  0
   -3.4203    6.4256    0.6938 C   0  0  0  1  0  0  0  0  0  0  0  0
   -2.5620    6.2780    1.7722 C   0  0  0  1  0  0  0  0  0  0  0  0
   -1.8972    5.0822    1.9680 C   0  0  0  1  0  0  0  0  0  0  0  0
   -2.0930    4.0286    1.0888 C   0  0  0  1  0  0  0  0  0  0  0  0
   -2.9488    4.1755    0.0135 C   0  0  0  1  0  0  0  0  0  0  0  0
   -3.6155    5.3749   -0.1827 C   0  0  0  1  0  0  0  0  0  0  0  0
   -1.4419    2.6948    1.3692 C   0  0  0  1  0  0  0  0  0  0  0  0
   -2.4182    7.0672    2.4341 H   0  0  0  1  0  0  0  0  0  0  0  0
   -1.2501    4.9729    2.7748 H   0  0  0  1  0  0  0  0  0  0  0  0
   -3.0926    3.3862   -0.6483 H   0  0  0  1  0  0  0  0  0  0  0  0
   -4.2626    5.4842   -0.9895 H   0  0  0  1  0  0  0  0  0  0  0  0
   -1.1376    2.2418    0.4488 H   0  0  0  1  0  0  0  0  0  0  0  0
   -0.5873    2.8360    1.9974 H   0  0  0  1  0  0  0  0  0  0  0  0
  1  4  1  0  0  0  0
  2  4  1  0  0  0  0
  2  5  2  0  0  0  0
  2  6  1  0  0  0  0
  3  4  1  0  0  0  0
  3  7  1  0  0  0  0
  3  8  1  0  0  0  0
  4 26  1  0  0  0  0
  6  9  1  0  0  0  0
  6 12  1  0  0  0  0
  8 10  1  0  0  0  0
  8 11  2  0  0  0  0
  9 13  1  0  0  0  0
  9 14  1  0  0  0  0
  9 15  1  0  0  0  0
 10 16  1  0  0  0  0
 10 17  1  0  0  0  0
 10 18  1  0  0  0  0
 19 20  1  0  0  0  0
 20 21  4  0  0  0  0
 20 25  4  0  0  0  0
 21 22  4  0  0  0  0
 21 27  1  0  0  0  0
 22 23  4  0  0  0  0
 22 28  1  0  0  0  0
 23 24  4  0  0  0  0
 23 26  1  0  0  0  0
 24 25  4  0  0  0  0
 24 29  1  0  0  0  0
 25 30  1  0  0  0  0
 26 31  1  0  0  0  0
 26 32  1  0  0  0  0
M  END
> <BCLConfClusterSize>
1

> <ConfClashScore>
0 

> <ConfOneFourInteractionScore>
-0.967251 

> <ConfScore>
-0.285401 

> <ConfScorePBest>
0.00760599 

> <ConfTolerance>
0.253561 

> <RosettaParamsInstructions>
M  ROOT 3
M  POLY_N_BB 3
M  POLY_CA_BB 4
M  POLY_C_BB 2
M  POLY_O_BB 5
M  POLY_IGNORE 9 10 11 12 13 14 15 16 17 18 
M  POLY_UPPER 6
M  POLY_LOWER 8
M  POLY_CHG 0
M  POLY_PROPERTIES ALPHA_AA L_AA PROTEIN AROMATIC POLYMER 
M  END

$$$$



 32 32  0  0  0  0  0  0  0  0999 V2000
   -3.0690    1.7805    2.1742 H   0  0  0  1  0  0  0  0  0  0  0  0
   -1.5026    0.4432    2.5461 C   0  0  0  1  0  0  0  0  0  0  0  0
   -1.9638    2.5717    3.7223 N   0  0  0  1  0  0  0  0  0  0  0  0
   -2.0324    1.8667    2.4247 C   0  0  0  1  0  0  0  0  0  0  0  0
   -1.7872   -0.4157    1.7156 O   0  0  0  1  0  0  0  0  0  0  0  0
   -0.7174    0.2020    3.6069 N   0  0  0  1  0  0  0  0  0  0  0  0
   -1.3911    3.3631    3.8009 H   0  0  0  1  0  0  0  0  0  0  0  0
   -2.6773    2.1546    4.8254 C   0  0  0  1  0  0  0  0  0  0  0  0
   -0.1485   -1.1222    3.8089 C   0  0  0  1  0  0  0  0  0  0  0  0
   -2.5218    2.9909    6.0620 C   0  0  0  1  0  0  0  0  0  0  0  0
   -3.3791    1.1632    4.7589 O   0  0  0  1  0  0  0  0  0  0  0  0
   -0.5265    0.9190    4.2471 H   0  0  0  1  0  0  0  0  0  0  0  0
   -0.9370   -1.8330    3.9431 H   0  0  0  1  0  0  0  0  0  0  0  0
    0.4752   -1.1133    4.6783 H   0  0  0  1  0  0  0  0  0  0  0  0
    0.4345   -1.3939    2.9538 H   0  0  0  1  0  0  0  0  0  0  0  0
   -1.4845    3.0681    6.3129 H   0  0  0  1  0  0  0  0  0  0  0  0
   -3.0510    2.5325    6.8711 H   0  0  0  1  0  0  0  0  0  0  0  0
   -2.9190    3.9683    5.8836 H   0  0  0  1  0  0  0  0  0  0  0  0
   -4.4032    8.2433    0.3789 I   0  0  0  1  0  0  0  0  0  0  0  0
   -3.4175    6.4271    0.6918 C   0  0  0  1  0  0  0  0  0  0  0  0
   -2.5641    6.2783    1.7740 C   0  0  0  1  0  0  0  0  0  0  0  0
   -1.9084    5.0788    1.9774 C   0  0  0  1  0  0  0  0  0  0  0  0
   -2.1083    4.0227    1.1021 C   0  0  0  1  0  0  0  0  0  0  0  0
   -2.9591    4.1708    0.0229 C   0  0  0  1  0  0  0  0  0  0  0  0
   -3.6167    5.3740   -0.1809 C   0  0  0  1  0  0  0  0  0  0  0  0
   -1.3965    2.7096    1.3270 C   0  0  0  1  0  0  0  0  0  0  0  0
   -2.4173    7.0693    2.4330 H   0  0  0  1  0  0  0  0  0  0  0  0
   -1.2651    4.9685    2.7871 H   0  0  0  1  0  0  0  0  0  0  0  0
   -3.1058    3.3797   -0.6360 H   0  0  0  1  0  0  0  0  0  0  0  0
   -4.2600    5.4843   -0.9906 H   0  0  0  1  0  0  0  0  0  0  0  0
   -1.4157    2.1511    0.4145 H   0  0  0  1  0  0  0  0  0  0  0  0
   -0.3821    2.9143    1.5992 H   0  0  0  1  0  0  0  0  0  0  0  0
  1  4  1  0  0  0  0
  2  4  1  0  0  0  0
  2  5  2  0  0  0  0
  2  6  1  0  0  0  0
  3  4  1  0  0  0  0
  3  7  1  0  0  0  0
  3  8  1  0  0  0  0
  4 26  1  0  0  0  0
  6  9  1  0  0  0  0
  6 12  1  0  0  0  0
  8 10  1  0  0  0  0
  8 11  2  0  0  0  0
  9 13  1  0  0  0  0
  9 14  1  0  0  0  0
  9 15  1  0  0  0  0
 10 16  1  0  0  0  0
 10 17  1  0  0  0  0
 10 18  1  0  0  0  0
 19 20  1  0  0  0  0
 20 21  4  0  0  0  0
 20 25  4  0  0  0  0
 21 22  4  0  0  0  0
 21 27  1  0  0  0  0
 22 23  4  0  0  0  0
 22 28  1  0  0  0  0
 23 24  4  0  0  0  0
 23 26  1  0  0  0  0
 24 25  4  0  0  0  0
 24 29  1  0  0  0  0
 25 30  1  0  0  0  0
 26 31  1  0  0  0  0
 26 32  1  0  0  0  0
M  END
> <BCLConfClusterSize>
1

> <ConfClashScore>
0 

> <ConfOneFourInteractionScore>
-0.956443 

> <ConfScore>
-0.282847 

> <ConfScorePBest>
0.00757751 

> <ConfTolerance>
0.189045 

> <RosettaParamsInstructions>
M  ROOT 3
M  POLY_N_BB 3
M  POLY_CA_BB 4
M  POLY_C_BB 2
M  POLY_O_BB 5
M  POLY_IGNORE 9 10 11 12 13 14 15 16 17 18 
M  POLY_UPPER 6
M  POLY_LOWER 8
M  POLY_CHG 0
M  POLY_PROPERTIES ALPHA_AA L_AA PROTEIN AROMATIC POLYMER 
M  END

$$$$



 32 32  0  0  0  0  0  0  0  0999 V2000
   -2.9130    1.3565    0.6375 H   0  0  0  1  0  0  0  0  0  0  0  0
   -1.6513    0.2846    1.9349 C   0  0  0  1  0  0  0  0  0  0  0  0
   -3.3715    1.8579    2.5821 N   0  0  0  1  0  0  0  0  0  0  0  0
   -2.3912    1.5512    1.5511 C   0  0  0  1  0  0  0  0  0  0  0  0
   -1.2088   -0.4731    1.0732 O   0  0  0  1  0  0  0  0  0  0  0  0
   -1.4952    0.0177    3.2347 N   0  0  0  1  0  0  0  0  0  0  0  0
   -3.2410    2.6553    3.1365 H   0  0  0  1  0  0  0  0  0  0  0  0
   -4.4415    1.0913    2.7986 C   0  0  0  1  0  0  0  0  0  0  0  0
   -0.9175   -1.2314    3.7080 C   0  0  0  1  0  0  0  0  0  0  0  0
   -5.3107    1.4921    3.9689 C   0  0  0  1  0  0  0  0  0  0  0  0
   -4.7194    0.1165    2.1012 O   0  0  0  1  0  0  0  0  0  0  0  0
   -1.7796    0.6863    3.8923 H   0  0  0  1  0  0  0  0  0  0  0  0
   -0.1862   -1.5750    3.0066 H   0  0  0  1  0  0  0  0  0  0  0  0
   -1.6892   -1.9660    3.8070 H   0  0  0  1  0  0  0  0  0  0  0  0
   -0.4525   -1.0715    4.6583 H   0  0  0  1  0  0  0  0  0  0  0  0
   -4.6952    1.6751    4.8248 H   0  0  0  1  0  0  0  0  0  0  0  0
   -6.0000    0.7034    4.1876 H   0  0  0  1  0  0  0  0  0  0  0  0
   -5.8521    2.3816    3.7226 H   0  0  0  1  0  0  0  0  0  0  0  0
   -4.4059    8.2409    0.3740 I   0  0  0  1  0  0  0  0  0  0  0  0
   -3.4171    6.4273    0.6924 C   0  0  0  1  0  0  0  0  0  0  0  0
   -2.5646    6.2828    1.7759 C   0  0  0  1  0  0  0  0  0  0  0  0
   -1.9069    5.0850    1.9830 C   0  0  0  1  0  0  0  0  0  0  0  0
   -2.1039    4.0264    1.1101 C   0  0  0  1  0  0  0  0  0  0  0  0
   -2.9538    4.1702    0.0297 C   0  0  0  1  0  0  0  0  0  0  0  0
   -3.6134    5.3716   -0.1778 C   0  0  0  1  0  0  0  0  0  0  0  0
   -1.4177    2.6926    1.2883 C   0  0  0  1  0  0  0  0  0  0  0  0
   -2.4200    7.0758    2.4331 H   0  0  0  1  0  0  0  0  0  0  0  0
   -1.2643    4.9780    2.7937 H   0  0  0  1  0  0  0  0  0  0  0  0
   -3.0984    3.3772   -0.6274 H   0  0  0  1  0  0  0  0  0  0  0  0
   -4.2560    5.4787   -0.9885 H   0  0  0  1  0  0  0  0  0  0  0  0
   -0.8662    2.4718    0.3984 H   0  0  0  1  0  0  0  0  0  0  0  0
   -0.7447    2.7639    2.1171 H   0  0  0  1  0  0  0  0  0  0  0  0
  1  4  1  0  0  0  0
  2  4  1  0  0  0  0
  2  5  2  0  0  0  0
  2  6  1  0  0  0  0
  3  4  1  0  0  0  0
  3  7  1  0  0  0  0
  3  8  1  0  0  0  0
  4 26  1  0  0  0  0
  6  9  1  0  0  0  0
  6 12  1  0  0  0  0
  8 10  1  0  0  0  0
  8 11  2  0  0  0  0
  9 13  1  0  0  0  0
  9 14  1  0  0  0  0
  9 15  1  0  0  0  0
 10 16  1  0  0  0  0
 10 17  1  0  0  0  0
 10 18  1  0  0  0  0
 19 20  1  0  0  0  0
 20 21  4  0  0  0  0
 20 25  4  0  0  0  0
 21 22  4  0  0  0  0
 21 27  1  0  0  0  0
 22 23  4  0  0  0  0
 22 28  1  0  0  0  0
 23 24  4  0  0  0  0
 23 26  1  0  0  0  0
 24 25  4  0  0  0  0
 24 29  1  0  0  0  0
 25 30  1  0  0  0  0
 26 31  1  0  0  0  0
 26 32  1  0  0  0  0
M  END
> <BCLConfClusterSize>
1

> <ConfClashScore>
0 

> <ConfOneFourInteractionScore>
-0.94165 

> <ConfScore>
-0.282813 

> <ConfScorePBest>
0.00754903 

> <ConfTolerance>
0.158259 

> <RosettaParamsInstructions>
M  ROOT 3
M  POLY_N_BB 3
M  POLY_CA_BB 4
M  POLY_C_BB 2
M  POLY_O_BB 5
M  POLY_IGNORE 9 10 11 12 13 14 15 16 17 18 
M  POLY_UPPER 6
M  POLY_LOWER 8
M  POLY_CHG 0
M  POLY_PROPERTIES ALPHA_AA L_AA PROTEIN AROMATIC POLYMER 
M  END

$$$$



 32 32  0  0  0  0  0  0  0  0999 V2000
    0.5756    3.5559    1.3990 H   0  0  0  1  0  0  0  0  0  0  0  0
    0.7813    1.4604    1.2486 C   0  0  0  1  0  0  0  0  0  0  0  0
    0.1558    2.9873   -0.5431 N   0  0  0  1  0  0  0  0  0  0  0  0
    0.0794    2.7559    0.8904 C   0  0  0  1  0  0  0  0  0  0  0  0
    1.3924    1.3381    2.3069 O   0  0  0  1  0  0  0  0  0  0  0  0
    0.6873    0.4760    0.3408 N   0  0  0  1  0  0  0  0  0  0  0  0
   -0.6665    3.0787   -1.0682 H   0  0  0  1  0  0  0  0  0  0  0  0
    1.3500    3.0759   -1.1484 C   0  0  0  1  0  0  0  0  0  0  0  0
    1.3176   -0.8216    0.5331 C   0  0  0  1  0  0  0  0  0  0  0  0
    1.3198    3.4852   -2.6081 C   0  0  0  1  0  0  0  0  0  0  0  0
    2.4182    2.8423   -0.5690 O   0  0  0  1  0  0  0  0  0  0  0  0
    0.1765    0.6367   -0.4800 H   0  0  0  1  0  0  0  0  0  0  0  0
    0.8827   -1.3077    1.3812 H   0  0  0  1  0  0  0  0  0  0  0  0
    2.3663   -0.6875    0.6980 H   0  0  0  1  0  0  0  0  0  0  0  0
    1.1672   -1.4236   -0.3387 H   0  0  0  1  0  0  0  0  0  0  0  0
    0.3853    3.9581   -2.8272 H   0  0  0  1  0  0  0  0  0  0  0  0
    1.4332    2.6177   -3.2240 H   0  0  0  1  0  0  0  0  0  0  0  0
    2.1195    4.1688   -2.8032 H   0  0  0  1  0  0  0  0  0  0  0  0
   -4.4007    8.2454    0.3836 I   0  0  0  1  0  0  0  0  0  0  0  0
   -3.4178    6.4267    0.6912 C   0  0  0  1  0  0  0  0  0  0  0  0
   -2.5636    6.2739    1.7722 C   0  0  0  1  0  0  0  0  0  0  0  0
   -1.9097    5.0728    1.9721 C   0  0  0  1  0  0  0  0  0  0  0  0
   -2.1123    4.0191    1.0945 C   0  0  0  1  0  0  0  0  0  0  0  0
   -2.9639    4.1713    0.0166 C   0  0  0  1  0  0  0  0  0  0  0  0
   -3.6196    5.3760   -0.1838 C   0  0  0  1  0  0  0  0  0  0  0  0
   -1.3776    2.7270    1.3628 C   0  0  0  1  0  0  0  0  0  0  0  0
   -2.4148    7.0632    2.4329 H   0  0  0  1  0  0  0  0  0  0  0  0
   -1.2658    4.9596    2.7809 H   0  0  0  1  0  0  0  0  0  0  0  0
   -3.1127    3.3820   -0.6441 H   0  0  0  1  0  0  0  0  0  0  0  0
   -4.2635    5.4893   -0.9926 H   0  0  0  1  0  0  0  0  0  0  0  0
   -1.3904    2.5403    2.4163 H   0  0  0  1  0  0  0  0  0  0  0  0
   -1.8850    1.9346    0.8534 H   0  0  0  1  0  0  0  0  0  0  0  0
  1  4  1  0  0  0  0
  2  4  1  0  0  0  0
  2  5  2  0  0  0  0
  2  6  1  0  0  0  0
  3  4  1  0  0  0  0
  3  7  1  0  0  0  0
  3  8  1  0  0  0  0
  4 26  1  0  0  0  0
  6  9  1  0  0  0  0
  6 12  1  0  0  0  0
  8 10  1  0  0  0  0
  8 11  2  0  0  0  0
  9 13  1  0  0  0  0
  9 14  1  0  0  0  0
  9 15  1  0  0  0  0
 10 16  1  0  0  0  0
 10 17  1  0  0  0  0
 10 18  1  0  0  0  0
 19 20  1  0  0  0  0
 20 21  4  0  0  0  0
 20 25  4  0  0  0  0
 21 22  4  0  0  0  0
 21 27  1  0  0  0  0
 22 23  4  0  0  0  0
 22 28  1  0  0  0  0
 23 24  4  0  0  0  0
 23 26  1  0  0  0  0
 24 25  4  0  0  0  0
 24 29  1  0  0  0  0
 25 30  1  0  0  0  0
 26 31  1  0  0  0  0
 26 32  1  0  0  0  0
M  END
> <BCLConfClusterSize>
1

> <ConfClashScore>
0 

> <ConfOneFourInteractionScore>
-0.960318 

> <ConfScore>
-0.27771 

> <ConfScorePBest>
0.00752055 

> <ConfTolerance>
0.182183 

> <RosettaParamsInstructions>
M  ROOT 3
M  POLY_N_BB 3
M  POLY_CA_BB 4
M  POLY_C_BB 2
M  POLY_O_BB 5
M  POLY_IGNORE 9 10 11 12 13 14 15 16 17 18 
M  POLY_UPPER 6
M  POLY_LOWER 8
M  POLY_CHG 0
M  POLY_PROPERTIES ALPHA_AA L_AA PROTEIN AROMATIC POLYMER 
M  END

$$$$



 32 32  0  0  0  0  0  0  0  0999 V2000
   -3.2025    1.5969    1.4210 H   0  0  0  1  0  0  0  0  0  0  0  0
   -1.5925    0.2813    1.8630 C   0  0  0  1  0  0  0  0  0  0  0  0
   -2.4949    1.9491    3.3419 N   0  0  0  1  0  0  0  0  0  0  0  0
   -2.2664    1.6458    1.9370 C   0  0  0  1  0  0  0  0  0  0  0  0
   -1.9123   -0.5431    1.0076 O   0  0  0  1  0  0  0  0  0  0  0  0
   -0.6422    0.0496    2.7824 N   0  0  0  1  0  0  0  0  0  0  0  0
   -1.9339    2.6520    3.7313 H   0  0  0  1  0  0  0  0  0  0  0  0
   -3.3913    1.3726    4.1692 C   0  0  0  1  0  0  0  0  0  0  0  0
    0.0730   -1.2077    2.9427 C   0  0  0  1  0  0  0  0  0  0  0  0
   -3.3001    1.6871    5.6497 C   0  0  0  1  0  0  0  0  0  0  0  0
   -4.2582    0.6138    3.7375 O   0  0  0  1  0  0  0  0  0  0  0  0
   -0.4127    0.7822    3.3915 H   0  0  0  1  0  0  0  0  0  0  0  0
    0.0891   -1.7310    2.0096 H   0  0  0  1  0  0  0  0  0  0  0  0
   -0.4205   -1.8070    3.6790 H   0  0  0  1  0  0  0  0  0  0  0  0
    1.0763   -1.0094    3.2575 H   0  0  0  1  0  0  0  0  0  0  0  0
   -3.8678    2.5686    5.8633 H   0  0  0  1  0  0  0  0  0  0  0  0
   -2.2768    1.8487    5.9174 H   0  0  0  1  0  0  0  0  0  0  0  0
   -3.6914    0.8659    6.2132 H   0  0  0  1  0  0  0  0  0  0  0  0
   -4.3572    8.2545    0.3181 I   0  0  0  1  0  0  0  0  0  0  0  0
   -3.4381    6.4195    0.7128 C   0  0  0  1  0  0  0  0  0  0  0  0
   -2.5778    6.2759    1.7902 C   0  0  0  1  0  0  0  0  0  0  0  0
   -1.9062    5.0837    1.9845 C   0  0  0  1  0  0  0  0  0  0  0  0
   -2.0970    4.0296    1.1048 C   0  0  0  1  0  0  0  0  0  0  0  0
   -2.9548    4.1725    0.0305 C   0  0  0  1  0  0  0  0  0  0  0  0
   -3.6283    5.3683   -0.1642 C   0  0  0  1  0  0  0  0  0  0  0  0
   -1.3957    2.7019    1.2689 C   0  0  0  1  0  0  0  0  0  0  0  0
   -2.4376    7.0655    2.4525 H   0  0  0  1  0  0  0  0  0  0  0  0
   -1.2577    4.9775    2.7906 H   0  0  0  1  0  0  0  0  0  0  0  0
   -3.0949    3.3829   -0.6318 H   0  0  0  1  0  0  0  0  0  0  0  0
   -4.2768    5.4746   -0.9703 H   0  0  0  1  0  0  0  0  0  0  0  0
   -1.1103    2.3456    0.3012 H   0  0  0  1  0  0  0  0  0  0  0  0
   -0.5211    2.8504    1.8671 H   0  0  0  1  0  0  0  0  0  0  0  0
  1  4  1  0  0  0  0
  2  4  1  0  0  0  0
  2  5  2  0  0  0  0
  2  6  1  0  0  0  0
  3  4  1  0  0  0  0
  3  7  1  0  0  0  0
  3  8  1  0  0  0  0
  4 26  1  0  0  0  0
  6  9  1  0  0  0  0
  6 12  1  0  0  0  0
  8 10  1  0  0  0  0
  8 11  2  0  0  0  0
  9 13  1  0  0  0  0
  9 14  1  0  0  0  0
  9 15  1  0  0  0  0
 10 16  1  0  0  0  0
 10 17  1  0  0  0  0
 10 18  1  0  0  0  0
 19 20  1  0  0  0  0
 20 21  4  0  0  0  0
 20 25  4  0  0  0  0
 21 22  4  0  0  0  0
 21 27  1  0  0  0  0
 22 23  4  0  0  0  0
 22 28  1  0  0  0  0
 23 24  4  0  0  0  0
 23 26  1  0  0  0  0
 24 25  4  0  0  0  0
 24 29  1  0  0  0  0
 25 30  1  0  0  0  0
 26 31  1  0  0  0  0
 26 32  1  0  0  0  0
M  END
> <BCLConfClusterSize>
1

> <ConfClashScore>
0 

> <ConfOneFourInteractionScore>
-0.956443 

> <ConfScore>
-0.273089 

> <ConfScorePBest>
0.00749207 

> <ConfTolerance>
0.201768 

> <RosettaParamsInstructions>
M  ROOT 3
M  POLY_N_BB 3
M  POLY_CA_BB 4
M  POLY_C_BB 2
M  POLY_O_BB 5
M  POLY_IGNORE 9 10 11 12 13 14 15 16 17 18 
M  POLY_UPPER 6
M  POLY_LOWER 8
M  POLY_CHG 0
M  POLY_PROPERTIES ALPHA_AA L_AA PROTEIN AROMATIC POLYMER 
M  END

$$$$



 32 32  0  0  0  0  0  0  0  0999 V2000
    0.3644    3.5974    0.6088 H   0  0  0  1  0  0  0  0  0  0  0  0
    0.8744    1.6217    1.0620 C   0  0  0  1  0  0  0  0  0  0  0  0
   -0.3999    2.4653   -0.9093 N   0  0  0  1  0  0  0  0  0  0  0  0
   -0.1073    2.6426    0.5052 C   0  0  0  1  0  0  0  0  0  0  0  0
    1.6524    1.9131    1.9687 O   0  0  0  1  0  0  0  0  0  0  0  0
    0.8295    0.4055    0.5021 N   0  0  0  1  0  0  0  0  0  0  0  0
   -1.3356    2.4466   -1.2000 H   0  0  0  1  0  0  0  0  0  0  0  0
    0.5992    2.3219   -1.8601 C   0  0  0  1  0  0  0  0  0  0  0  0
    1.8002   -0.6319    0.8174 C   0  0  0  1  0  0  0  0  0  0  0  0
    0.2166    2.1907   -3.3076 C   0  0  0  1  0  0  0  0  0  0  0  0
    1.7585    2.3069   -1.4886 O   0  0  0  1  0  0  0  0  0  0  0  0
    0.1181    0.2074   -0.1422 H   0  0  0  1  0  0  0  0  0  0  0  0
    2.7270   -0.1791    1.1022 H   0  0  0  1  0  0  0  0  0  0  0  0
    1.9546   -1.2489   -0.0430 H   0  0  0  1  0  0  0  0  0  0  0  0
    1.4329   -1.2302    1.6249 H   0  0  0  1  0  0  0  0  0  0  0  0
   -0.3952    1.3227   -3.4381 H   0  0  0  1  0  0  0  0  0  0  0  0
    1.1008    2.0964   -3.9028 H   0  0  0  1  0  0  0  0  0  0  0  0
   -0.3281    3.0598   -3.6124 H   0  0  0  1  0  0  0  0  0  0  0  0
   -4.3790    8.2629    0.4232 I   0  0  0  1  0  0  0  0  0  0  0  0
   -3.4231    6.4223    0.6814 C   0  0  0  1  0  0  0  0  0  0  0  0
   -2.5710    6.2797    1.7654 C   0  0  0  1  0  0  0  0  0  0  0  0
   -1.9124    5.0827    1.9742 C   0  0  0  1  0  0  0  0  0  0  0  0
   -2.1081    4.0229    1.1024 C   0  0  0  1  0  0  0  0  0  0  0  0
   -2.9577    4.1649    0.0214 C   0  0  0  1  0  0  0  0  0  0  0  0
   -3.6181    5.3656   -0.1878 C   0  0  0  1  0  0  0  0  0  0  0  0
   -1.3932    2.7125    1.3331 C   0  0  0  1  0  0  0  0  0  0  0  0
   -2.4273    7.0735    2.4218 H   0  0  0  1  0  0  0  0  0  0  0  0
   -1.2701    4.9771    2.7853 H   0  0  0  1  0  0  0  0  0  0  0  0
   -3.1013    3.3710   -0.6349 H   0  0  0  1  0  0  0  0  0  0  0  0
   -4.2605    5.4712   -0.9989 H   0  0  0  1  0  0  0  0  0  0  0  0
   -1.1475    2.6250    2.3709 H   0  0  0  1  0  0  0  0  0  0  0  0
   -2.0375    1.9067    1.0494 H   0  0  0  1  0  0  0  0  0  0  0  0
  1  4  1  0  0  0  0
  2  4  1  0  0  0  0
  2  5  2  0  0  0  0
  2  6  1  0  0  0  0
  3  4  1  0  0  0  0
  3  7  1  0  0  0  0
  3  8  1  0  0  0  0
  4 26  1  0  0  0  0
  6  9  1  0  0  0  0
  6 12  1  0  0  0  0
  8 10  1  0  0  0  0
  8 11  2  0  0  0  0
  9 13  1  0  0  0  0
  9 14  1  0  0  0  0
  9 15  1  0  0  0  0
 10 16  1  0  0  0  0
 10 17  1  0  0  0  0
 10 18  1  0  0  0  0
 19 20  1  0  0  0  0
 20 21  4  0  0  0  0
 20 25  4  0  0  0  0
 21 22  4  0  0  0  0
 21 27  1  0  0  0  0
 22 23  4  0  0  0  0
 22 28  1  0  0  0  0
 23 24  4  0  0  0  0
 23 26  1  0  0  0  0
 24 25  4  0  0  0  0
 24 29  1  0  0  0  0
 25 30  1  0  0  0  0
 26 31  1  0  0  0  0
 26 32  1  0  0  0  0
M  END
> <BCLConfClusterSize>
1

> <ConfClashScore>
0 

> <ConfOneFourInteractionScore>
-0.956443 

> <ConfScore>
-0.271018 

> <ConfScorePBest>
0.00746359 

> <ConfTolerance>
0.196421 

> <RosettaParamsInstructions>
M  ROOT 3
M  POLY_N_BB 3
M  POLY_CA_BB 4
M  POLY_C_BB 2
M  POLY_O_BB 5
M  POLY_IGNORE 9 10 11 12 13 14 15 16 17 18 
M  POLY_UPPER 6
M  POLY_LOWER 8
M  POLY_CHG 0
M  POLY_PROPERTIES ALPHA_AA L_AA PROTEIN AROMATIC POLYMER 
M  END

$$$$



 32 32  0  0  0  0  0  0  0  0999 V2000
    0.6200    3.3233    0.9774 H   0  0  0  1  0  0  0  0  0  0  0  0
    0.5184    1.2253    0.7917 C   0  0  0  1  0  0  0  0  0  0  0  0
   -0.3101    2.9222   -0.8226 N   0  0  0  1  0  0  0  0  0  0  0  0
   -0.0674    2.6074    0.5776 C   0  0  0  1  0  0  0  0  0  0  0  0
    1.1805    0.9608    1.7944 O   0  0  0  1  0  0  0  0  0  0  0  0
    0.2660    0.3288   -0.1750 N   0  0  0  1  0  0  0  0  0  0  0  0
   -1.2290    3.0055   -1.1529 H   0  0  0  1  0  0  0  0  0  0  0  0
    0.7216    3.0988   -1.6620 C   0  0  0  1  0  0  0  0  0  0  0  0
    0.7269   -1.0446   -0.0364 C   0  0  0  1  0  0  0  0  0  0  0  0
    0.3915    3.5363   -3.0893 C   0  0  0  1  0  0  0  0  0  0  0  0
    1.8824    2.8443   -1.3432 O   0  0  0  1  0  0  0  0  0  0  0  0
   -0.2297    0.5997   -0.9759 H   0  0  0  1  0  0  0  0  0  0  0  0
    1.6680   -1.0559    0.4727 H   0  0  0  1  0  0  0  0  0  0  0  0
    0.8411   -1.4819   -1.0063 H   0  0  0  1  0  0  0  0  0  0  0  0
    0.0106   -1.6059    0.5263 H   0  0  0  1  0  0  0  0  0  0  0  0
    0.7009    2.7765   -3.7763 H   0  0  0  1  0  0  0  0  0  0  0  0
    0.9060    4.4479   -3.3107 H   0  0  0  1  0  0  0  0  0  0  0  0
   -0.6635    3.6905   -3.1798 H   0  0  0  1  0  0  0  0  0  0  0  0
   -4.4007    8.2454    0.3836 I   0  0  0  1  0  0  0  0  0  0  0  0
   -3.4178    6.4267    0.6912 C   0  0  0  1  0  0  0  0  0  0  0  0
   -2.5636    6.2739    1.7722 C   0  0  0  1  0  0  0  0  0  0  0  0
   -1.9097    5.0728    1.9721 C   0  0  0  1  0  0  0  0  0  0  0  0
   -2.1123    4.0191    1.0945 C   0  0  0  1  0  0  0  0  0  0  0  0
   -2.9639    4.1713    0.0166 C   0  0  0  1  0  0  0  0  0  0  0  0
   -3.6196    5.3760   -0.1838 C   0  0  0  1  0  0  0  0  0  0  0  0
   -1.3776    2.7270    1.3628 C   0  0  0  1  0  0  0  0  0  0  0  0
   -2.4148    7.0632    2.4329 H   0  0  0  1  0  0  0  0  0  0  0  0
   -1.2658    4.9596    2.7809 H   0  0  0  1  0  0  0  0  0  0  0  0
   -3.1127    3.3820   -0.6441 H   0  0  0  1  0  0  0  0  0  0  0  0
   -4.2635    5.4893   -0.9926 H   0  0  0  1  0  0  0  0  0  0  0  0
   -1.1545    2.6727    2.4079 H   0  0  0  1  0  0  0  0  0  0  0  0
   -2.0135    1.9107    1.0905 H   0  0  0  1  0  0  0  0  0  0  0  0
  1  4  1  0  0  0  0
  2  4  1  0  0  0  0
  2  5  2  0  0  0  0
  2  6  1  0  0  0  0
  3  4  1  0  0  0  0
  3  7  1  0  0  0  0
  3  8  1  0  0  0  0
  4 26  1  0  0  0  0
  6  9  1  0  0  0  0
  6 12  1  0  0  0  0
  8 10  1  0  0  0  0
  8 11  2  0  0  0  0
  9 13  1  0  0  0  0
  9 14  1  0  0  0  0
  9 15  1  0  0  0  0
 10 16  1  0  0  0  0
 10 17  1  0  0  0  0
 10 18  1  0  0  0  0
 19 20  1  0  0  0  0
 20 21  4  0  0  0  0
 20 25  4  0  0  0  0
 21 22  4  0  0  0  0
 21 27  1  0  0  0  0
 22 23  4  0  0  0  0
 22 28  1  0  0  0  0
 23 24  4  0  0  0  0
 23 26  1  0  0  0  0
 24 25  4  0  0  0  0
 24 29  1  0  0  0  0
 25 30  1  0  0  0  0
 26 31  1  0  0  0  0
 26 32  1  0  0  0  0
M  END
> <BCLConfClusterSize>
1

> <ConfClashScore>
0 

> <ConfOneFourInteractionScore>
-0.94165 

> <ConfScore>
-0.270847 

> <ConfScorePBest>
0.0074351 

> <ConfTolerance>
0.214474 

> <RosettaParamsInstructions>
M  ROOT 3
M  POLY_N_BB 3
M  POLY_CA_BB 4
M  POLY_C_BB 2
M  POLY_O_BB 5
M  POLY_IGNORE 9 10 11 12 13 14 15 16 17 18 
M  POLY_UPPER 6
M  POLY_LOWER 8
M  POLY_CHG 0
M  POLY_PROPERTIES ALPHA_AA L_AA PROTEIN AROMATIC POLYMER 
M  END

$$$$



 32 32  0  0  0  0  0  0  0  0999 V2000
    0.5760    3.5509    1.2836 H   0  0  0  1  0  0  0  0  0  0  0  0
    0.7952    1.4578    1.1780 C   0  0  0  1  0  0  0  0  0  0  0  0
    0.0176    2.9392   -0.6103 N   0  0  0  1  0  0  0  0  0  0  0  0
    0.0588    2.7315    0.8297 C   0  0  0  1  0  0  0  0  0  0  0  0
    0.9063    0.5485    0.3567 O   0  0  0  1  0  0  0  0  0  0  0  0
    1.3228    1.3499    2.4077 N   0  0  0  1  0  0  0  0  0  0  0  0
   -0.5639    2.3515   -1.1365 H   0  0  0  1  0  0  0  0  0  0  0  0
    0.7117    3.8694   -1.2679 C   0  0  0  1  0  0  0  0  0  0  0  0
    2.0549    0.1933    2.9016 C   0  0  0  1  0  0  0  0  0  0  0  0
    0.3930    4.0090   -2.7392 C   0  0  0  1  0  0  0  0  0  0  0  0
    1.5608    4.5777   -0.7285 O   0  0  0  1  0  0  0  0  0  0  0  0
    1.2061    2.1071    3.0188 H   0  0  0  1  0  0  0  0  0  0  0  0
    1.3813   -0.6283    3.0286 H   0  0  0  1  0  0  0  0  0  0  0  0
    2.5067    0.4322    3.8417 H   0  0  0  1  0  0  0  0  0  0  0  0
    2.8151   -0.0746    2.1978 H   0  0  0  1  0  0  0  0  0  0  0  0
   -0.6354    4.2797   -2.8578 H   0  0  0  1  0  0  0  0  0  0  0  0
    0.5757    3.0778   -3.2334 H   0  0  0  1  0  0  0  0  0  0  0  0
    1.0131    4.7685   -3.1677 H   0  0  0  1  0  0  0  0  0  0  0  0
   -4.4007    8.2454    0.3836 I   0  0  0  1  0  0  0  0  0  0  0  0
   -3.4178    6.4267    0.6912 C   0  0  0  1  0  0  0  0  0  0  0  0
   -2.5636    6.2739    1.7722 C   0  0  0  1  0  0  0  0  0  0  0  0
   -1.9097    5.0728    1.9721 C   0  0  0  1  0  0  0  0  0  0  0  0
   -2.1123    4.0191    1.0945 C   0  0  0  1  0  0  0  0  0  0  0  0
   -2.9639    4.1713    0.0166 C   0  0  0  1  0  0  0  0  0  0  0  0
   -3.6196    5.3760   -0.1838 C   0  0  0  1  0  0  0  0  0  0  0  0
   -1.3776    2.7270    1.3628 C   0  0  0  1  0  0  0  0  0  0  0  0
   -2.4148    7.0632    2.4329 H   0  0  0  1  0  0  0  0  0  0  0  0
   -1.2658    4.9596    2.7809 H   0  0  0  1  0  0  0  0  0  0  0  0
   -3.1127    3.3820   -0.6441 H   0  0  0  1  0  0  0  0  0  0  0  0
   -4.2635    5.4893   -0.9926 H   0  0  0  1  0  0  0  0  0  0  0  0
   -1.3479    2.5652    2.4201 H   0  0  0  1  0  0  0  0  0  0  0  0
   -1.9123    1.9275    0.8940 H   0  0  0  1  0  0  0  0  0  0  0  0
  1  4  1  0  0  0  0
  2  4  1  0  0  0  0
  2  5  2  0  0  0  0
  2  6  1  0  0  0  0
  3  4  1  0  0  0  0
  3  7  1  0  0  0  0
  3  8  1  0  0  0  0
  4 26  1  0  0  0  0
  6  9  1  0  0  0  0
  6 12  1  0  0  0  0
  8 10  1  0  0  0  0
  8 11  2  0  0  0  0
  9 13  1  0  0  0  0
  9 14  1  0  0  0  0
  9 15  1  0  0  0  0
 10 16  1  0  0  0  0
 10 17  1  0  0  0  0
 10 18  1  0  0  0  0
 19 20  1  0  0  0  0
 20 21  4  0  0  0  0
 20 25  4  0  0  0  0
 21 22  4  0  0  0  0
 21 27  1  0  0  0  0
 22 23  4  0  0  0  0
 22 28  1  0  0  0  0
 23 24  4  0  0  0  0
 23 26  1  0  0  0  0
 24 25  4  0  0  0  0
 24 29  1  0  0  0  0
 25 30  1  0  0  0  0
 26 31  1  0  0  0  0
 26 32  1  0  0  0  0
M  END
> <BCLConfClusterSize>
1

> <ConfClashScore>
0 

> <ConfOneFourInteractionScore>
-0.985807 

> <ConfScore>
-0.267798 

> <ConfScorePBest>
0.00740662 

> <ConfTolerance>
0.215605 

> <RosettaParamsInstructions>
M  ROOT 3
M  POLY_N_BB 3
M  POLY_CA_BB 4
M  POLY_C_BB 2
M  POLY_O_BB 5
M  POLY_IGNORE 9 10 11 12 13 14 15 16 17 18 
M  POLY_UPPER 6
M  POLY_LOWER 8
M  POLY_CHG 0
M  POLY_PROPERTIES ALPHA_AA L_AA PROTEIN AROMATIC POLYMER 
M  END

$$$$



 32 32  0  0  0  0  0  0  0  0999 V2000
   -2.9714    1.5238    0.6634 H   0  0  0  1  0  0  0  0  0  0  0  0
   -1.5757    0.1905    1.5148 C   0  0  0  1  0  0  0  0  0  0  0  0
   -3.1152    1.7507    2.7153 N   0  0  0  1  0  0  0  0  0  0  0  0
   -2.3140    1.5231    1.5075 C   0  0  0  1  0  0  0  0  0  0  0  0
   -1.4888   -0.4956    0.4998 O   0  0  0  1  0  0  0  0  0  0  0  0
   -1.0399   -0.1699    2.6844 N   0  0  0  1  0  0  0  0  0  0  0  0
   -2.8472    2.5068    3.2782 H   0  0  0  1  0  0  0  0  0  0  0  0
   -4.1687    1.0443    3.1350 C   0  0  0  1  0  0  0  0  0  0  0  0
   -0.2637   -1.3805    2.9076 C   0  0  0  1  0  0  0  0  0  0  0  0
   -4.9070    1.6108    4.3322 C   0  0  0  1  0  0  0  0  0  0  0  0
   -4.5316   -0.0010    2.5972 O   0  0  0  1  0  0  0  0  0  0  0  0
   -1.1801    0.4259    3.4498 H   0  0  0  1  0  0  0  0  0  0  0  0
   -0.6166   -2.1555    2.2598 H   0  0  0  1  0  0  0  0  0  0  0  0
   -0.3716   -1.6904    3.9260 H   0  0  0  1  0  0  0  0  0  0  0  0
    0.7679   -1.1856    2.7010 H   0  0  0  1  0  0  0  0  0  0  0  0
   -4.2694    2.2926    4.8551 H   0  0  0  1  0  0  0  0  0  0  0  0
   -5.1891    0.8130    4.9871 H   0  0  0  1  0  0  0  0  0  0  0  0
   -5.7834    2.1264    3.9992 H   0  0  0  1  0  0  0  0  0  0  0  0
   -4.4007    8.2454    0.3836 I   0  0  0  1  0  0  0  0  0  0  0  0
   -3.4178    6.4267    0.6912 C   0  0  0  1  0  0  0  0  0  0  0  0
   -2.5636    6.2739    1.7722 C   0  0  0  1  0  0  0  0  0  0  0  0
   -1.9097    5.0728    1.9721 C   0  0  0  1  0  0  0  0  0  0  0  0
   -2.1123    4.0191    1.0945 C   0  0  0  1  0  0  0  0  0  0  0  0
   -2.9639    4.1713    0.0166 C   0  0  0  1  0  0  0  0  0  0  0  0
   -3.6196    5.3760   -0.1838 C   0  0  0  1  0  0  0  0  0  0  0  0
   -1.3776    2.7270    1.3628 C   0  0  0  1  0  0  0  0  0  0  0  0
   -2.4148    7.0632    2.4329 H   0  0  0  1  0  0  0  0  0  0  0  0
   -1.2658    4.9596    2.7809 H   0  0  0  1  0  0  0  0  0  0  0  0
   -3.1127    3.3820   -0.6441 H   0  0  0  1  0  0  0  0  0  0  0  0
   -4.2635    5.4893   -0.9926 H   0  0  0  1  0  0  0  0  0  0  0  0
   -0.7072    2.5413    0.5498 H   0  0  0  1  0  0  0  0  0  0  0  0
   -0.8188    2.8347    2.2689 H   0  0  0  1  0  0  0  0  0  0  0  0
  1  4  1  0  0  0  0
  2  4  1  0  0  0  0
  2  5  2  0  0  0  0
  2  6  1  0  0  0  0
  3  4  1  0  0  0  0
  3  7  1  0  0  0  0
  3  8  1  0  0  0  0
  4 26  1  0  0  0  0
  6  9  1  0  0  0  0
  6 12  1  0  0  0  0
  8 10  1  0  0  0  0
  8 11  2  0  0  0  0
  9 13  1  0  0  0  0
  9 14  1  0  0  0  0
  9 15  1  0  0  0  0
 10 16  1  0  0  0  0
 10 17  1  0  0  0  0
 10 18  1  0  0  0  0
 19 20  1  0  0  0  0
 20 21  4  0  0  0  0
 20 25  4  0  0  0  0
 21 22  4  0  0  0  0
 21 27  1  0  0  0  0
 22 23  4  0  0  0  0
 22 28  1  0  0  0  0
 23 24  4  0  0  0  0
 23 26  1  0  0  0  0
 24 25  4  0  0  0  0
 24 29  1  0  0  0  0
 25 30  1  0  0  0  0
 26 31  1  0  0  0  0
 26 32  1  0  0  0  0
M  END
> <BCLConfClusterSize>
1

> <ConfClashScore>
0 

> <ConfOneFourInteractionScore>
-0.960318 

> <ConfScore>
-0.265132 

> <ConfScorePBest>
0.00737814 

> <ConfTolerance>
0.20898 

> <RosettaParamsInstructions>
M  ROOT 3
M  POLY_N_BB 3
M  POLY_CA_BB 4
M  POLY_C_BB 2
M  POLY_O_BB 5
M  POLY_IGNORE 9 10 11 12 13 14 15 16 17 18 
M  POLY_UPPER 6
M  POLY_LOWER 8
M  POLY_CHG 0
M  POLY_PROPERTIES ALPHA_AA L_AA PROTEIN AROMATIC POLYMER 
M  END

$$$$



 32 32  0  0  0  0  0  0  0  0999 V2000
   -3.1050    1.6055    1.9590 H   0  0  0  1  0  0  0  0  0  0  0  0
   -1.3849    0.4509    2.4290 C   0  0  0  1  0  0  0  0  0  0  0  0
   -2.1863    2.4425    3.6121 N   0  0  0  1  0  0  0  0  0  0  0  0
   -2.1124    1.7961    2.3104 C   0  0  0  1  0  0  0  0  0  0  0  0
   -0.3596    0.3659    3.1037 O   0  0  0  1  0  0  0  0  0  0  0  0
   -1.9689   -0.6064    1.8431 N   0  0  0  1  0  0  0  0  0  0  0  0
   -1.3639    2.6430    4.1059 H   0  0  0  1  0  0  0  0  0  0  0  0
   -3.3847    2.7662    4.1407 C   0  0  0  1  0  0  0  0  0  0  0  0
   -1.3834   -1.9382    1.8817 C   0  0  0  1  0  0  0  0  0  0  0  0
   -3.3001    3.3170    5.5509 C   0  0  0  1  0  0  0  0  0  0  0  0
   -4.4628    2.6394    3.5615 O   0  0  0  1  0  0  0  0  0  0  0  0
   -2.8190   -0.4769    1.3731 H   0  0  0  1  0  0  0  0  0  0  0  0
   -0.3180   -1.8584    1.9397 H   0  0  0  1  0  0  0  0  0  0  0  0
   -1.6532   -2.4719    0.9944 H   0  0  0  1  0  0  0  0  0  0  0  0
   -1.7487   -2.4634    2.7394 H   0  0  0  1  0  0  0  0  0  0  0  0
   -2.9365    2.5567    6.2101 H   0  0  0  1  0  0  0  0  0  0  0  0
   -4.2721    3.6305    5.8700 H   0  0  0  1  0  0  0  0  0  0  0  0
   -2.6319    4.1526    5.5676 H   0  0  0  1  0  0  0  0  0  0  0  0
   -4.3818    8.2606    0.4182 I   0  0  0  1  0  0  0  0  0  0  0  0
   -3.4227    6.4225    0.6820 C   0  0  0  1  0  0  0  0  0  0  0  0
   -2.5715    6.2842    1.7673 C   0  0  0  1  0  0  0  0  0  0  0  0
   -1.9110    5.0889    1.9798 C   0  0  0  1  0  0  0  0  0  0  0  0
   -2.1038    4.0266    1.1104 C   0  0  0  1  0  0  0  0  0  0  0  0
   -2.9524    4.1643    0.0282 C   0  0  0  1  0  0  0  0  0  0  0  0
   -3.6149    5.3632   -0.1847 C   0  0  0  1  0  0  0  0  0  0  0  0
   -1.4143    2.6954    1.2945 C   0  0  0  1  0  0  0  0  0  0  0  0
   -2.4300    7.0799    2.4218 H   0  0  0  1  0  0  0  0  0  0  0  0
   -1.2693    4.9865    2.7918 H   0  0  0  1  0  0  0  0  0  0  0  0
   -3.0939    3.3685   -0.6262 H   0  0  0  1  0  0  0  0  0  0  0  0
   -4.2565    5.4656   -0.9967 H   0  0  0  1  0  0  0  0  0  0  0  0
   -1.3917    2.1903    0.3515 H   0  0  0  1  0  0  0  0  0  0  0  0
   -0.4135    2.8734    1.6284 H   0  0  0  1  0  0  0  0  0  0  0  0
  1  4  1  0  0  0  0
  2  4  1  0  0  0  0
  2  5  2  0  0  0  0
  2  6  1  0  0  0  0
  3  4  1  0  0  0  0
  3  7  1  0  0  0  0
  3  8  1  0  0  0  0
  4 26  1  0  0  0  0
  6  9  1  0  0  0  0
  6 12  1  0  0  0  0
  8 10  1  0  0  0  0
  8 11  2  0  0  0  0
  9 13  1  0  0  0  0
  9 14  1  0  0  0  0
  9 15  1  0  0  0  0
 10 16  1  0  0  0  0
 10 17  1  0  0  0  0
 10 18  1  0  0  0  0
 19 20  1  0  0  0  0
 20 21  4  0  0  0  0
 20 25  4  0  0  0  0
 21 22  4  0  0  0  0
 21 27  1  0  0  0  0
 22 23  4  0  0  0  0
 22 28  1  0  0  0  0
 23 24  4  0  0  0  0
 23 26  1  0  0  0  0
 24 25  4  0  0  0  0
 24 29  1  0  0  0  0
 25 30  1  0  0  0  0
 26 31  1  0  0  0  0
 26 32  1  0  0  0  0
M  END
> <BCLConfClusterSize>
1

> <ConfClashScore>
0 

> <ConfOneFourInteractionScore>
-0.986627 

> <ConfScore>
-0.264596 

> <ConfScorePBest>
0.00734966 

> <ConfTolerance>
0.168436 

> <RosettaParamsInstructions>
M  ROOT 3
M  POLY_N_BB 3
M  POLY_CA_BB 4
M  POLY_C_BB 2
M  POLY_O_BB 5
M  POLY_IGNORE 9 10 11 12 13 14 15 16 17 18 
M  POLY_UPPER 6
M  POLY_LOWER 8
M  POLY_CHG 0
M  POLY_PROPERTIES ALPHA_AA L_AA PROTEIN AROMATIC POLYMER 
M  END

$$$$



 32 32  0  0  0  0  0  0  0  0999 V2000
    0.5554    3.4684    1.0897 H   0  0  0  1  0  0  0  0  0  0  0  0
    0.7490    1.3753    1.3893 C   0  0  0  1  0  0  0  0  0  0  0  0
    0.0381    2.4407   -0.6347 N   0  0  0  1  0  0  0  0  0  0  0  0
    0.0186    2.5851    0.8133 C   0  0  0  1  0  0  0  0  0  0  0  0
    1.4329    1.4767    2.4069 O   0  0  0  1  0  0  0  0  0  0  0  0
    0.6232    0.2055    0.7560 N   0  0  0  1  0  0  0  0  0  0  0  0
   -0.8043    2.3707   -1.1305 H   0  0  0  1  0  0  0  0  0  0  0  0
    1.2135    2.4030   -1.2960 C   0  0  0  1  0  0  0  0  0  0  0  0
    1.2969   -1.0013    1.2114 C   0  0  0  1  0  0  0  0  0  0  0  0
    1.1776    2.3262   -2.8056 C   0  0  0  1  0  0  0  0  0  0  0  0
    2.2825    2.4301   -0.6919 O   0  0  0  1  0  0  0  0  0  0  0  0
    0.0575    0.1586   -0.0428 H   0  0  0  1  0  0  0  0  0  0  0  0
    2.2634   -0.7480    1.5944 H   0  0  0  1  0  0  0  0  0  0  0  0
    1.4053   -1.6800    0.3913 H   0  0  0  1  0  0  0  0  0  0  0  0
    0.7176   -1.4634    1.9832 H   0  0  0  1  0  0  0  0  0  0  0  0
    2.1320    2.0077   -3.1698 H   0  0  0  1  0  0  0  0  0  0  0  0
    0.9473    3.2913   -3.2061 H   0  0  0  1  0  0  0  0  0  0  0  0
    0.4283    1.6254   -3.1091 H   0  0  0  1  0  0  0  0  0  0  0  0
   -4.4032    8.2433    0.3789 I   0  0  0  1  0  0  0  0  0  0  0  0
   -3.4175    6.4271    0.6918 C   0  0  0  1  0  0  0  0  0  0  0  0
   -2.5641    6.2783    1.7740 C   0  0  0  1  0  0  0  0  0  0  0  0
   -1.9084    5.0788    1.9774 C   0  0  0  1  0  0  0  0  0  0  0  0
   -2.1083    4.0227    1.1021 C   0  0  0  1  0  0  0  0  0  0  0  0
   -2.9591    4.1708    0.0229 C   0  0  0  1  0  0  0  0  0  0  0  0
   -3.6167    5.3740   -0.1809 C   0  0  0  1  0  0  0  0  0  0  0  0
   -1.3965    2.7096    1.3270 C   0  0  0  1  0  0  0  0  0  0  0  0
   -2.4173    7.0693    2.4330 H   0  0  0  1  0  0  0  0  0  0  0  0
   -1.2651    4.9685    2.7871 H   0  0  0  1  0  0  0  0  0  0  0  0
   -3.1058    3.3797   -0.6360 H   0  0  0  1  0  0  0  0  0  0  0  0
   -4.2600    5.4843   -0.9906 H   0  0  0  1  0  0  0  0  0  0  0  0
   -1.3703    2.5363    2.3825 H   0  0  0  1  0  0  0  0  0  0  0  0
   -1.9772    1.9455    0.8539 H   0  0  0  1  0  0  0  0  0  0  0  0
  1  4  1  0  0  0  0
  2  4  1  0  0  0  0
  2  5  2  0  0  0  0
  2  6  1  0  0  0  0
  3  4  1  0  0  0  0
  3  7  1  0  0  0  0
  3  8  1  0  0  0  0
  4 26  1  0  0  0  0
  6  9  1  0  0  0  0
  6 12  1  0  0  0  0
  8 10  1  0  0  0  0
  8 11  2  0  0  0  0
  9 13  1  0  0  0  0
  9 14  1  0  0  0  0
  9 15  1  0  0  0  0
 10 16  1  0  0  0  0
 10 17  1  0  0  0  0
 10 18  1  0  0  0  0
 19 20  1  0  0  0  0
 20 21  4  0  0  0  0
 20 25  4  0  0  0  0
 21 22  4  0  0  0  0
 21 27  1  0  0  0  0
 22 23  4  0  0  0  0
 22 28  1  0  0  0  0
 23 24  4  0  0  0  0
 23 26  1  0  0  0  0
 24 25  4  0  0  0  0
 24 29  1  0  0  0  0
 25 30  1  0  0  0  0
 26 31  1  0  0  0  0
 26 32  1  0  0  0  0
M  END
> <BCLConfClusterSize>
1

> <ConfClashScore>
0 

> <ConfOneFourInteractionScore>
-0.956443 

> <ConfScore>
-0.263871 

> <ConfScorePBest>
0.00732118 

> <ConfTolerance>
0.267507 

> <RosettaParamsInstructions>
M  ROOT 3
M  POLY_N_BB 3
M  POLY_CA_BB 4
M  POLY_C_BB 2
M  POLY_O_BB 5
M  POLY_IGNORE 9 10 11 12 13 14 15 16 17 18 
M  POLY_UPPER 6
M  POLY_LOWER 8
M  POLY_CHG 0
M  POLY_PROPERTIES ALPHA_AA L_AA PROTEIN AROMATIC POLYMER 
M  END

$$$$



 32 32  0  0  0  0  0  0  0  0999 V2000
    0.5960    3.3349    1.0392 H   0  0  0  1  0  0  0  0  0  0  0  0
    0.5733    1.2450    0.7699 C   0  0  0  1  0  0  0  0  0  0  0  0
   -0.2391    2.9779   -0.8070 N   0  0  0  1  0  0  0  0  0  0  0  0
   -0.0623    2.6194    0.5923 C   0  0  0  1  0  0  0  0  0  0  0  0
    0.2638    0.3000    0.0455 O   0  0  0  1  0  0  0  0  0  0  0  0
    1.4784    1.1441    1.7562 N   0  0  0  1  0  0  0  0  0  0  0  0
   -0.8562    2.4504   -1.3560 H   0  0  0  1  0  0  0  0  0  0  0  0
    0.4095    3.9994   -1.3684 C   0  0  0  1  0  0  0  0  0  0  0  0
    2.1068   -0.1204    2.1082 C   0  0  0  1  0  0  0  0  0  0  0  0
    0.1074    4.2229   -2.8505 C   0  0  0  1  0  0  0  0  0  0  0  0
    1.2502    4.6808   -0.7832 O   0  0  0  1  0  0  0  0  0  0  0  0
    1.7245    1.9500    2.2566 H   0  0  0  1  0  0  0  0  0  0  0  0
    2.6494   -0.4963    1.2661 H   0  0  0  1  0  0  0  0  0  0  0  0
    1.3538   -0.8261    2.3909 H   0  0  0  1  0  0  0  0  0  0  0  0
    2.7793    0.0314    2.9266 H   0  0  0  1  0  0  0  0  0  0  0  0
   -0.9027    3.9360   -3.0563 H   0  0  0  1  0  0  0  0  0  0  0  0
    0.7737    3.6315   -3.4432 H   0  0  0  1  0  0  0  0  0  0  0  0
    0.2398    5.2575   -3.0891 H   0  0  0  1  0  0  0  0  0  0  0  0
   -4.4032    8.2433    0.3789 I   0  0  0  1  0  0  0  0  0  0  0  0
   -3.4175    6.4271    0.6918 C   0  0  0  1  0  0  0  0  0  0  0  0
   -2.5641    6.2783    1.7740 C   0  0  0  1  0  0  0  0  0  0  0  0
   -1.9084    5.0788    1.9774 C   0  0  0  1  0  0  0  0  0  0  0  0
   -2.1083    4.0227    1.1021 C   0  0  0  1  0  0  0  0  0  0  0  0
   -2.9591    4.1708    0.0229 C   0  0  0  1  0  0  0  0  0  0  0  0
   -3.6167    5.3740   -0.1809 C   0  0  0  1  0  0  0  0  0  0  0  0
   -1.3965    2.7096    1.3270 C   0  0  0  1  0  0  0  0  0  0  0  0
   -2.4173    7.0693    2.4330 H   0  0  0  1  0  0  0  0  0  0  0  0
   -1.2651    4.9685    2.7871 H   0  0  0  1  0  0  0  0  0  0  0  0
   -3.1058    3.3797   -0.6360 H   0  0  0  1  0  0  0  0  0  0  0  0
   -4.2600    5.4843   -0.9906 H   0  0  0  1  0  0  0  0  0  0  0  0
   -1.2163    2.5951    2.3755 H   0  0  0  1  0  0  0  0  0  0  0  0
   -2.0281    1.9168    0.9844 H   0  0  0  1  0  0  0  0  0  0  0  0
  1  4  1  0  0  0  0
  2  4  1  0  0  0  0
  2  5  2  0  0  0  0
  2  6  1  0  0  0  0
  3  4  1  0  0  0  0
  3  7  1  0  0  0  0
  3  8  1  0  0  0  0
  4 26  1  0  0  0  0
  6  9  1  0  0  0  0
  6 12  1  0  0  0  0
  8 10  1  0  0  0  0
  8 11  2  0  0  0  0
  9 13  1  0  0  0  0
  9 14  1  0  0  0  0
  9 15  1  0  0  0  0
 10 16  1  0  0  0  0
 10 17  1  0  0  0  0
 10 18  1  0  0  0  0
 19 20  1  0  0  0  0
 20 21  4  0  0  0  0
 20 25  4  0  0  0  0
 21 22  4  0  0  0  0
 21 27  1  0  0  0  0
 22 23  4  0  0  0  0
 22 28  1  0  0  0  0
 23 24  4  0  0  0  0
 23 26  1  0  0  0  0
 24 25  4  0  0  0  0
 24 29  1  0  0  0  0
 25 30  1  0  0  0  0
 26 31  1  0  0  0  0
 26 32  1  0  0  0  0
M  END
> <BCLConfClusterSize>
1

> <ConfClashScore>
0 

> <ConfOneFourInteractionScore>
-0.985807 

> <ConfScore>
-0.258141 

> <ConfScorePBest>
0.0072927 

> <ConfTolerance>
0.248401 

> <RosettaParamsInstructions>
M  ROOT 3
M  POLY_N_BB 3
M  POLY_CA_BB 4
M  POLY_C_BB 2
M  POLY_O_BB 5
M  POLY_IGNORE 9 10 11 12 13 14 15 16 17 18 
M  POLY_UPPER 6
M  POLY_LOWER 8
M  POLY_CHG 0
M  POLY_PROPERTIES ALPHA_AA L_AA PROTEIN AROMATIC POLYMER 
M  END

$$$$



 32 32  0  0  0  0  0  0  0  0999 V2000
    0.5868    3.3871    1.2048 H   0  0  0  1  0  0  0  0  0  0  0  0
    0.6117    1.3053    0.9574 C   0  0  0  1  0  0  0  0  0  0  0  0
   -0.0579    3.0460   -0.7118 N   0  0  0  1  0  0  0  0  0  0  0  0
   -0.0129    2.6645    0.6918 C   0  0  0  1  0  0  0  0  0  0  0  0
    1.1816    1.0613    2.0196 O   0  0  0  1  0  0  0  0  0  0  0  0
    0.4982    0.4116   -0.0292 N   0  0  0  1  0  0  0  0  0  0  0  0
   -0.8334    2.8035   -1.2598 H   0  0  0  1  0  0  0  0  0  0  0  0
    0.9656    3.7328   -1.2603 C   0  0  0  1  0  0  0  0  0  0  0  0
    1.1311   -0.8934    0.0906 C   0  0  0  1  0  0  0  0  0  0  0  0
    0.8747    4.0950   -2.7299 C   0  0  0  1  0  0  0  0  0  0  0  0
    1.9434    4.0563   -0.5912 O   0  0  0  1  0  0  0  0  0  0  0  0
   -0.0122    0.6353   -0.8353 H   0  0  0  1  0  0  0  0  0  0  0  0
    1.1112   -1.2075    1.1132 H   0  0  0  1  0  0  0  0  0  0  0  0
    2.1457   -0.8295   -0.2430 H   0  0  0  1  0  0  0  0  0  0  0  0
    0.6016   -1.6028   -0.5105 H   0  0  0  1  0  0  0  0  0  0  0  0
    0.0247    4.7247   -2.8907 H   0  0  0  1  0  0  0  0  0  0  0  0
    0.7722    3.2026   -3.3113 H   0  0  0  1  0  0  0  0  0  0  0  0
    1.7631    4.6133   -3.0249 H   0  0  0  1  0  0  0  0  0  0  0  0
   -4.4032    8.2433    0.3789 I   0  0  0  1  0  0  0  0  0  0  0  0
   -3.4175    6.4271    0.6918 C   0  0  0  1  0  0  0  0  0  0  0  0
   -2.5641    6.2783    1.7740 C   0  0  0  1  0  0  0  0  0  0  0  0
   -1.9084    5.0788    1.9774 C   0  0  0  1  0  0  0  0  0  0  0  0
   -2.1083    4.0227    1.1021 C   0  0  0  1  0  0  0  0  0  0  0  0
   -2.9591    4.1708    0.0229 C   0  0  0  1  0  0  0  0  0  0  0  0
   -3.6167    5.3740   -0.1809 C   0  0  0  1  0  0  0  0  0  0  0  0
   -1.3965    2.7096    1.3270 C   0  0  0  1  0  0  0  0  0  0  0  0
   -2.4173    7.0693    2.4330 H   0  0  0  1  0  0  0  0  0  0  0  0
   -1.2651    4.9685    2.7871 H   0  0  0  1  0  0  0  0  0  0  0  0
   -3.1058    3.3797   -0.6360 H   0  0  0  1  0  0  0  0  0  0  0  0
   -4.2600    5.4843   -0.9906 H   0  0  0  1  0  0  0  0  0  0  0  0
   -1.2928    2.5545    2.3806 H   0  0  0  1  0  0  0  0  0  0  0  0
   -1.9897    1.9243    0.9071 H   0  0  0  1  0  0  0  0  0  0  0  0
  1  4  1  0  0  0  0
  2  4  1  0  0  0  0
  2  5  2  0  0  0  0
  2  6  1  0  0  0  0
  3  4  1  0  0  0  0
  3  7  1  0  0  0  0
  3  8  1  0  0  0  0
  4 26  1  0  0  0  0
  6  9  1  0  0  0  0
  6 12  1  0  0  0  0
  8 10  1  0  0  0  0
  8 11  2  0  0  0  0
  9 13  1  0  0  0  0
  9 14  1  0  0  0  0
  9 15  1  0  0  0  0
 10 16  1  0  0  0  0
 10 17  1  0  0  0  0
 10 18  1  0  0  0  0
 19 20  1  0  0  0  0
 20 21  4  0  0  0  0
 20 25  4  0  0  0  0
 21 22  4  0  0  0  0
 21 27  1  0  0  0  0
 22 23  4  0  0  0  0
 22 28  1  0  0  0  0
 23 24  4  0  0  0  0
 23 26  1  0  0  0  0
 24 25  4  0  0  0  0
 24 29  1  0  0  0  0
 25 30  1  0  0  0  0
 26 31  1  0  0  0  0
 26 32  1  0  0  0  0
M  END
> <BCLConfClusterSize>
1

> <ConfClashScore>
0 

> <ConfOneFourInteractionScore>
-0.960318 

> <ConfScore>
-0.257036 

> <ConfScorePBest>
0.00726422 

> <ConfTolerance>
0.181437 

> <RosettaParamsInstructions>
M  ROOT 3
M  POLY_N_BB 3
M  POLY_CA_BB 4
M  POLY_C_BB 2
M  POLY_O_BB 5
M  POLY_IGNORE 9 10 11 12 13 14 15 16 17 18 
M  POLY_UPPER 6
M  POLY_LOWER 8
M  POLY_CHG 0
M  POLY_PROPERTIES ALPHA_AA L_AA PROTEIN AROMATIC POLYMER 
M  END

$$$$



 32 32  0  0  0  0  0  0  0  0999 V2000
   -3.1585    1.5774    1.6242 H   0  0  0  1  0  0  0  0  0  0  0  0
   -1.5158    0.3029    1.9869 C   0  0  0  1  0  0  0  0  0  0  0  0
   -2.3648    2.0333    3.4776 N   0  0  0  1  0  0  0  0  0  0  0  0
   -2.1948    1.6553    2.0826 C   0  0  0  1  0  0  0  0  0  0  0  0
   -0.6183   -0.0173    2.7488 O   0  0  0  1  0  0  0  0  0  0  0  0
   -1.9971   -0.4742    1.0038 N   0  0  0  1  0  0  0  0  0  0  0  0
   -1.5699    2.0421    4.0507 H   0  0  0  1  0  0  0  0  0  0  0  0
   -3.5356    2.3690    4.0268 C   0  0  0  1  0  0  0  0  0  0  0  0
   -1.4138   -1.7382    0.5797 C   0  0  0  1  0  0  0  0  0  0  0  0
   -3.5149    2.6154    5.5228 C   0  0  0  1  0  0  0  0  0  0  0  0
   -4.5744    2.4762    3.3764 O   0  0  0  1  0  0  0  0  0  0  0  0
   -2.8019   -0.1671    0.5364 H   0  0  0  1  0  0  0  0  0  0  0  0
   -0.5650   -1.9629    1.1912 H   0  0  0  1  0  0  0  0  0  0  0  0
   -1.1070   -1.6640   -0.4426 H   0  0  0  1  0  0  0  0  0  0  0  0
   -2.1407   -2.5172    0.6789 H   0  0  0  1  0  0  0  0  0  0  0  0
   -2.9554    3.5034    5.7308 H   0  0  0  1  0  0  0  0  0  0  0  0
   -3.0576    1.7826    6.0149 H   0  0  0  1  0  0  0  0  0  0  0  0
   -4.5171    2.7341    5.8784 H   0  0  0  1  0  0  0  0  0  0  0  0
   -4.4032    8.2433    0.3789 I   0  0  0  1  0  0  0  0  0  0  0  0
   -3.4175    6.4271    0.6918 C   0  0  0  1  0  0  0  0  0  0  0  0
   -2.5641    6.2783    1.7740 C   0  0  0  1  0  0  0  0  0  0  0  0
   -1.9084    5.0788    1.9774 C   0  0  0  1  0  0  0  0  0  0  0  0
   -2.1083    4.0227    1.1021 C   0  0  0  1  0  0  0  0  0  0  0  0
   -2.9591    4.1708    0.0229 C   0  0  0  1  0  0  0  0  0  0  0  0
   -3.6167    5.3740   -0.1809 C   0  0  0  1  0  0  0  0  0  0  0  0
   -1.3965    2.7096    1.3270 C   0  0  0  1  0  0  0  0  0  0  0  0
   -2.4173    7.0693    2.4330 H   0  0  0  1  0  0  0  0  0  0  0  0
   -1.2651    4.9685    2.7871 H   0  0  0  1  0  0  0  0  0  0  0  0
   -3.1058    3.3797   -0.6360 H   0  0  0  1  0  0  0  0  0  0  0  0
   -4.2600    5.4843   -0.9906 H   0  0  0  1  0  0  0  0  0  0  0  0
   -1.1389    2.3057    0.3702 H   0  0  0  1  0  0  0  0  0  0  0  0
   -0.5040    2.9088    1.8826 H   0  0  0  1  0  0  0  0  0  0  0  0
  1  4  1  0  0  0  0
  2  4  1  0  0  0  0
  2  5  2  0  0  0  0
  2  6  1  0  0  0  0
  3  4  1  0  0  0  0
  3  7  1  0  0  0  0
  3  8  1  0  0  0  0
  4 26  1  0  0  0  0
  6  9  1  0  0  0  0
  6 12  1  0  0  0  0
  8 10  1  0  0  0  0
  8 11  2  0  0  0  0
  9 13  1  0  0  0  0
  9 14  1  0  0  0  0
  9 15  1  0  0  0  0
 10 16  1  0  0  0  0
 10 17  1  0  0  0  0
 10 18  1  0  0  0  0
 19 20  1  0  0  0  0
 20 21  4  0  0  0  0
 20 25  4  0  0  0  0
 21 22  4  0  0  0  0
 21 27  1  0  0  0  0
 22 23  4  0  0  0  0
 22 28  1  0  0  0  0
 23 24  4  0  0  0  0
 23 26  1  0  0  0  0
 24 25  4  0  0  0  0
 24 29  1  0  0  0  0
 25 30  1  0  0  0  0
 26 31  1  0  0  0  0
 26 32  1  0  0  0  0
M  END
> <BCLConfClusterSize>
1

> <ConfClashScore>
0 

> <ConfOneFourInteractionScore>
-0.982823 

> <ConfScore>
-0.256854 

> <ConfScorePBest>
0.00723574 

> <ConfTolerance>
0.194599 

> <RosettaParamsInstructions>
M  ROOT 3
M  POLY_N_BB 3
M  POLY_CA_BB 4
M  POLY_C_BB 2
M  POLY_O_BB 5
M  POLY_IGNORE 9 10 11 12 13 14 15 16 17 18 
M  POLY_UPPER 6
M  POLY_LOWER 8
M  POLY_CHG 0
M  POLY_PROPERTIES ALPHA_AA L_AA PROTEIN AROMATIC POLYMER 
M  END

$$$$



 32 32  0  0  0  0  0  0  0  0999 V2000
    0.5251    3.3977    0.7254 H   0  0  0  1  0  0  0  0  0  0  0  0
    0.5783    1.2725    0.8566 C   0  0  0  1  0  0  0  0  0  0  0  0
   -0.4640    2.5953   -0.9232 N   0  0  0  1  0  0  0  0  0  0  0  0
   -0.1171    2.5749    0.4900 C   0  0  0  1  0  0  0  0  0  0  0  0
    1.4935    1.2467    1.6784 O   0  0  0  1  0  0  0  0  0  0  0  0
    0.1304    0.1795    0.2321 N   0  0  0  1  0  0  0  0  0  0  0  0
   -1.3892    2.3816   -1.1658 H   0  0  0  1  0  0  0  0  0  0  0  0
    0.3873    2.8848   -1.9190 C   0  0  0  1  0  0  0  0  0  0  0  0
    0.6245   -1.1705    0.4581 C   0  0  0  1  0  0  0  0  0  0  0  0
   -0.2066    2.8856   -3.3141 C   0  0  0  1  0  0  0  0  0  0  0  0
    1.5749    3.1357   -1.7318 O   0  0  0  1  0  0  0  0  0  0  0  0
   -0.5848    0.2958   -0.4277 H   0  0  0  1  0  0  0  0  0  0  0  0
    1.6932   -1.1560    0.5083 H   0  0  0  1  0  0  0  0  0  0  0  0
    0.3142   -1.8031   -0.3472 H   0  0  0  1  0  0  0  0  0  0  0  0
    0.2294   -1.5452    1.3792 H   0  0  0  1  0  0  0  0  0  0  0  0
   -1.0203    3.5792   -3.3555 H   0  0  0  1  0  0  0  0  0  0  0  0
   -0.5622    1.9045   -3.5507 H   0  0  0  1  0  0  0  0  0  0  0  0
    0.5435    3.1736   -4.0207 H   0  0  0  1  0  0  0  0  0  0  0  0
   -4.3572    8.2784    0.4619 I   0  0  0  1  0  0  0  0  0  0  0  0
   -3.4283    6.4179    0.6718 C   0  0  0  1  0  0  0  0  0  0  0  0
   -2.5784    6.2857    1.7589 C   0  0  0  1  0  0  0  0  0  0  0  0
   -1.9150    5.0929    1.9766 C   0  0  0  1  0  0  0  0  0  0  0  0
   -2.1037    4.0270    1.1107 C   0  0  0  1  0  0  0  0  0  0  0  0
   -2.9511    4.1587    0.0267 C   0  0  0  1  0  0  0  0  0  0  0  0
   -3.6164    5.3551   -0.1915 C   0  0  0  1  0  0  0  0  0  0  0  0
   -1.4111    2.6983    1.3005 C   0  0  0  1  0  0  0  0  0  0  0  0
   -2.4399    7.0841    2.4107 H   0  0  0  1  0  0  0  0  0  0  0  0
   -1.2743    4.9951    2.7899 H   0  0  0  1  0  0  0  0  0  0  0  0
   -3.0895    3.3602   -0.6251 H   0  0  0  1  0  0  0  0  0  0  0  0
   -4.2571    5.4529   -1.0048 H   0  0  0  1  0  0  0  0  0  0  0  0
   -1.1756    2.5821    2.3378 H   0  0  0  1  0  0  0  0  0  0  0  0
   -2.0790    1.9195    0.9965 H   0  0  0  1  0  0  0  0  0  0  0  0
  1  4  1  0  0  0  0
  2  4  1  0  0  0  0
  2  5  2  0  0  0  0
  2  6  1  0  0  0  0
  3  4  1  0  0  0  0
  3  7  1  0  0  0  0
  3  8  1  0  0  0  0
  4 26  1  0  0  0  0
  6  9  1  0  0  0  0
  6 12  1  0  0  0  0
  8 10  1  0  0  0  0
  8 11  2  0  0  0  0
  9 13  1  0  0  0  0
  9 14  1  0  0  0  0
  9 15  1  0  0  0  0
 10 16  1  0  0  0  0
 10 17  1  0  0  0  0
 10 18  1  0  0  0  0
 19 20  1  0  0  0  0
 20 21  4  0  0  0  0
 20 25  4  0  0  0  0
 21 22  4  0  0  0  0
 21 27  1  0  0  0  0
 22 23  4  0  0  0  0
 22 28  1  0  0  0  0
 23 24  4  0  0  0  0
 23 26  1  0  0  0  0
 24 25  4  0  0  0  0
 24 29  1  0  0  0  0
 25 30  1  0  0  0  0
 26 31  1  0  0  0  0
 26 32  1  0  0  0  0
M  END
> <BCLConfClusterSize>
1

> <ConfClashScore>
0 

> <ConfOneFourInteractionScore>
-0.960318 

> <ConfScore>
-0.256123 

> <ConfScorePBest>
0.00720726 

> <ConfTolerance>
0.197374 

> <RosettaParamsInstructions>
M  ROOT 3
M  POLY_N_BB 3
M  POLY_CA_BB 4
M  POLY_C_BB 2
M  POLY_O_BB 5
M  POLY_IGNORE 9 10 11 12 13 14 15 16 17 18 
M  POLY_UPPER 6
M  POLY_LOWER 8
M  POLY_CHG 0
M  POLY_PROPERTIES ALPHA_AA L_AA PROTEIN AROMATIC POLYMER 
M  END

$$$$



 32 32  0  0  0  0  0  0  0  0999 V2000
   -3.2775    1.6962    1.3744 H   0  0  0  1  0  0  0  0  0  0  0  0
   -1.8255    0.3321    2.0302 C   0  0  0  1  0  0  0  0  0  0  0  0
   -2.7486    2.2485    3.2839 N   0  0  0  1  0  0  0  0  0  0  0  0
   -2.3900    1.7335    1.9709 C   0  0  0  1  0  0  0  0  0  0  0  0
   -1.3728   -0.1219    3.0802 O   0  0  0  1  0  0  0  0  0  0  0  0
   -1.8336   -0.3996    0.9048 N   0  0  0  1  0  0  0  0  0  0  0  0
   -2.0500    2.3325    3.9660 H   0  0  0  1  0  0  0  0  0  0  0  0
   -3.9972    2.6110    3.5917 C   0  0  0  1  0  0  0  0  0  0  0  0
   -1.3691   -1.7768    0.9790 C   0  0  0  1  0  0  0  0  0  0  0  0
   -4.2338    2.9905    5.0360 C   0  0  0  1  0  0  0  0  0  0  0  0
   -4.9090    2.6402    2.7663 O   0  0  0  1  0  0  0  0  0  0  0  0
   -2.1433   -0.0173    0.0573 H   0  0  0  1  0  0  0  0  0  0  0  0
   -1.7789   -2.3364    0.1642 H   0  0  0  1  0  0  0  0  0  0  0  0
   -1.6863   -2.2105    1.9043 H   0  0  0  1  0  0  0  0  0  0  0  0
   -0.3008   -1.7962    0.9231 H   0  0  0  1  0  0  0  0  0  0  0  0
   -3.5105    3.7193    5.3370 H   0  0  0  1  0  0  0  0  0  0  0  0
   -4.1415    2.1210    5.6527 H   0  0  0  1  0  0  0  0  0  0  0  0
   -5.2169    3.3997    5.1405 H   0  0  0  1  0  0  0  0  0  0  0  0
   -4.4307    8.2176    0.3267 I   0  0  0  1  0  0  0  0  0  0  0  0
   -3.4111    6.4326    0.7036 C   0  0  0  1  0  0  0  0  0  0  0  0
   -2.5573    6.2814    1.7851 C   0  0  0  1  0  0  0  0  0  0  0  0
   -1.9027    5.0809    1.9864 C   0  0  0  1  0  0  0  0  0  0  0  0
   -2.1041    4.0263    1.1098 C   0  0  0  1  0  0  0  0  0  0  0  0
   -2.9554    4.1768    0.0313 C   0  0  0  1  0  0  0  0  0  0  0  0
   -3.6119    5.3809   -0.1705 C   0  0  0  1  0  0  0  0  0  0  0  0
   -1.4215    2.6899    1.2816 C   0  0  0  1  0  0  0  0  0  0  0  0
   -2.4093    7.0714    2.4451 H   0  0  0  1  0  0  0  0  0  0  0  0
   -1.2590    4.9689    2.7956 H   0  0  0  1  0  0  0  0  0  0  0  0
   -3.1034    3.3867   -0.6286 H   0  0  0  1  0  0  0  0  0  0  0  0
   -4.2556    5.4929   -0.9796 H   0  0  0  1  0  0  0  0  0  0  0  0
   -1.1491    2.2986    0.3237 H   0  0  0  1  0  0  0  0  0  0  0  0
   -0.5436    2.8083    1.8818 H   0  0  0  1  0  0  0  0  0  0  0  0
  1  4  1  0  0  0  0
  2  4  1  0  0  0  0
  2  5  2  0  0  0  0
  2  6  1  0  0  0  0
  3  4  1  0  0  0  0
  3  7  1  0  0  0  0
  3  8  1  0  0  0  0
  4 26  1  0  0  0  0
  6  9  1  0  0  0  0
  6 12  1  0  0  0  0
  8 10  1  0  0  0  0
  8 11  2  0  0  0  0
  9 13  1  0  0  0  0
  9 14  1  0  0  0  0
  9 15  1  0  0  0  0
 10 16  1  0  0  0  0
 10 17  1  0  0  0  0
 10 18  1  0  0  0  0
 19 20  1  0  0  0  0
 20 21  4  0  0  0  0
 20 25  4  0  0  0  0
 21 22  4  0  0  0  0
 21 27  1  0  0  0  0
 22 23  4  0  0  0  0
 22 28  1  0  0  0  0
 23 24  4  0  0  0  0
 23 26  1  0  0  0  0
 24 25  4  0  0  0  0
 24 29  1  0  0  0  0
 25 30  1  0  0  0  0
 26 31  1  0  0  0  0
 26 32  1  0  0  0  0
M  END
> <BCLConfClusterSize>
1

> <ConfClashScore>
0 

> <ConfOneFourInteractionScore>
-0.985807 

> <ConfScore>
-0.255983 

> <ConfScorePBest>
0.00717878 

> <ConfTolerance>
0.25047 

> <RosettaParamsInstructions>
M  ROOT 3
M  POLY_N_BB 3
M  POLY_CA_BB 4
M  POLY_C_BB 2
M  POLY_O_BB 5
M  POLY_IGNORE 9 10 11 12 13 14 15 16 17 18 
M  POLY_UPPER 6
M  POLY_LOWER 8
M  POLY_CHG 0
M  POLY_PROPERTIES ALPHA_AA L_AA PROTEIN AROMATIC POLYMER 
M  END

$$$$



 32 32  0  0  0  0  0  0  0  0999 V2000
   -0.3323    2.6980   -0.5207 H   0  0  0  1  0  0  0  0  0  0  0  0
    0.8164    3.7196    0.9657 C   0  0  0  1  0  0  0  0  0  0  0  0
    0.5806    1.3234    0.7513 N   0  0  0  1  0  0  0  0  0  0  0  0
   -0.1103    2.5831    0.5197 C   0  0  0  1  0  0  0  0  0  0  0  0
    0.8210    4.7987    0.3748 O   0  0  0  1  0  0  0  0  0  0  0  0
    1.6207    3.5019    2.0182 N   0  0  0  1  0  0  0  0  0  0  0  0
    0.2155    0.6756    1.3896 H   0  0  0  1  0  0  0  0  0  0  0  0
    1.7544    1.0378    0.0707 C   0  0  0  1  0  0  0  0  0  0  0  0
    2.5539    4.4734    2.5686 C   0  0  0  1  0  0  0  0  0  0  0  0
    2.4589   -0.2615    0.3429 C   0  0  0  1  0  0  0  0  0  0  0  0
    2.1771    1.8533   -0.7285 O   0  0  0  1  0  0  0  0  0  0  0  0
    1.5760    2.6224    2.4483 H   0  0  0  1  0  0  0  0  0  0  0  0
    2.1466    5.4576    2.4666 H   0  0  0  1  0  0  0  0  0  0  0  0
    3.4822    4.4153    2.0396 H   0  0  0  1  0  0  0  0  0  0  0  0
    2.7192    4.2617    3.6044 H   0  0  0  1  0  0  0  0  0  0  0  0
    1.7863   -1.0755    0.1701 H   0  0  0  1  0  0  0  0  0  0  0  0
    2.7888   -0.2817    1.3606 H   0  0  0  1  0  0  0  0  0  0  0  0
    3.3032   -0.3524   -0.3082 H   0  0  0  1  0  0  0  0  0  0  0  0
   -4.4282    8.2202    0.3317 I   0  0  0  1  0  0  0  0  0  0  0  0
   -3.4115    6.4323    0.7029 C   0  0  0  1  0  0  0  0  0  0  0  0
   -2.5568    6.2769    1.7831 C   0  0  0  1  0  0  0  0  0  0  0  0
   -1.9042    5.0747    1.9808 C   0  0  0  1  0  0  0  0  0  0  0  0
   -2.1085    4.0226    1.1017 C   0  0  0  1  0  0  0  0  0  0  0  0
   -2.9606    4.1774    0.0245 C   0  0  0  1  0  0  0  0  0  0  0  0
   -3.6151    5.3832   -0.1735 C   0  0  0  1  0  0  0  0  0  0  0  0
   -1.4001    2.7066    1.3203 C   0  0  0  1  0  0  0  0  0  0  0  0
   -2.4067    7.0649    2.4450 H   0  0  0  1  0  0  0  0  0  0  0  0
   -1.2599    4.9595    2.7890 H   0  0  0  1  0  0  0  0  0  0  0  0
   -3.1108    3.3893   -0.6372 H   0  0  0  1  0  0  0  0  0  0  0  0
   -4.2595    5.4985   -0.9817 H   0  0  0  1  0  0  0  0  0  0  0  0
   -1.1656    2.6148    2.3603 H   0  0  0  1  0  0  0  0  0  0  0  0
   -2.0578    1.9137    1.0311 H   0  0  0  1  0  0  0  0  0  0  0  0
  1  4  1  0  0  0  0
  2  4  1  0  0  0  0
  2  5  2  0  0  0  0
  2  6  1  0  0  0  0
  3  4  1  0  0  0  0
  3  7  1  0  0  0  0
  3  8  1  0  0  0  0
  4 26  1  0  0  0  0
  6  9  1  0  0  0  0
  6 12  1  0  0  0  0
  8 10  1  0  0  0  0
  8 11  2  0  0  0  0
  9 13  1  0  0  0  0
  9 14  1  0  0  0  0
  9 15  1  0  0  0  0
 10 16  1  0  0  0  0
 10 17  1  0  0  0  0
 10 18  1  0  0  0  0
 19 20  1  0  0  0  0
 20 21  4  0  0  0  0
 20 25  4  0  0  0  0
 21 22  4  0  0  0  0
 21 27  1  0  0  0  0
 22 23  4  0  0  0  0
 22 28  1  0  0  0  0
 23 24  4  0  0  0  0
 23 26  1  0  0  0  0
 24 25  4  0  0  0  0
 24 29  1  0  0  0  0
 25 30  1  0  0  0  0
 26 31  1  0  0  0  0
 26 32  1  0  0  0  0
M  END
> <BCLConfClusterSize>
1

> <ConfClashScore>
0 

> <ConfOneFourInteractionScore>
-0.960318 

> <ConfScore>
-0.255293 

> <ConfScorePBest>
0.0071503 

> <ConfTolerance>
0.156738 

> <RosettaParamsInstructions>
M  ROOT 3
M  POLY_N_BB 3
M  POLY_CA_BB 4
M  POLY_C_BB 2
M  POLY_O_BB 5
M  POLY_IGNORE 9 10 11 12 13 14 15 16 17 18 
M  POLY_UPPER 6
M  POLY_LOWER 8
M  POLY_CHG 0
M  POLY_PROPERTIES ALPHA_AA L_AA PROTEIN AROMATIC POLYMER 
M  END

$$$$



 32 32  0  0  0  0  0  0  0  0999 V2000
   -2.1317    2.3035    3.2765 H   0  0  0  1  0  0  0  0  0  0  0  0
   -3.5409    1.5822    1.8578 C   0  0  0  1  0  0  0  0  0  0  0  0
   -1.3995    0.5440    2.4519 N   0  0  0  1  0  0  0  0  0  0  0  0
   -2.1083    1.8089    2.3280 C   0  0  0  1  0  0  0  0  0  0  0  0
   -4.4538    2.3283    2.2093 O   0  0  0  1  0  0  0  0  0  0  0  0
   -3.7281    0.5334    1.0515 N   0  0  0  1  0  0  0  0  0  0  0  0
   -0.5434    0.4341    1.9879 H   0  0  0  1  0  0  0  0  0  0  0  0
   -1.8754   -0.4727    3.1764 C   0  0  0  1  0  0  0  0  0  0  0  0
   -5.0498    0.2548    0.5099 C   0  0  0  1  0  0  0  0  0  0  0  0
   -0.9858   -1.7072    3.2489 C   0  0  0  1  0  0  0  0  0  0  0  0
   -2.9604   -0.4328    3.7551 O   0  0  0  1  0  0  0  0  0  0  0  0
   -2.9738   -0.0495    0.8244 H   0  0  0  1  0  0  0  0  0  0  0  0
   -5.7931    0.4906    1.2426 H   0  0  0  1  0  0  0  0  0  0  0  0
   -5.1186   -0.7816    0.2531 H   0  0  0  1  0  0  0  0  0  0  0  0
   -5.2096    0.8508   -0.3643 H   0  0  0  1  0  0  0  0  0  0  0  0
   -0.1586   -1.5136    3.8994 H   0  0  0  1  0  0  0  0  0  0  0  0
   -0.6222   -1.9424    2.2704 H   0  0  0  1  0  0  0  0  0  0  0  0
   -1.5516   -2.5325    3.6277 H   0  0  0  1  0  0  0  0  0  0  0  0
   -4.4032    8.2433    0.3789 I   0  0  0  1  0  0  0  0  0  0  0  0
   -3.4175    6.4271    0.6918 C   0  0  0  1  0  0  0  0  0  0  0  0
   -2.5641    6.2783    1.7740 C   0  0  0  1  0  0  0  0  0  0  0  0
   -1.9084    5.0788    1.9774 C   0  0  0  1  0  0  0  0  0  0  0  0
   -2.1083    4.0227    1.1021 C   0  0  0  1  0  0  0  0  0  0  0  0
   -2.9591    4.1708    0.0229 C   0  0  0  1  0  0  0  0  0  0  0  0
   -3.6167    5.3740   -0.1809 C   0  0  0  1  0  0  0  0  0  0  0  0
   -1.3965    2.7096    1.3270 C   0  0  0  1  0  0  0  0  0  0  0  0
   -2.4173    7.0693    2.4330 H   0  0  0  1  0  0  0  0  0  0  0  0
   -1.2651    4.9685    2.7871 H   0  0  0  1  0  0  0  0  0  0  0  0
   -3.1058    3.3797   -0.6360 H   0  0  0  1  0  0  0  0  0  0  0  0
   -4.2600    5.4843   -0.9906 H   0  0  0  1  0  0  0  0  0  0  0  0
   -1.3300    2.1937    0.3919 H   0  0  0  1  0  0  0  0  0  0  0  0
   -0.4120    2.9141    1.6929 H   0  0  0  1  0  0  0  0  0  0  0  0
  1  4  1  0  0  0  0
  2  4  1  0  0  0  0
  2  5  2  0  0  0  0
  2  6  1  0  0  0  0
  3  4  1  0  0  0  0
  3  7  1  0  0  0  0
  3  8  1  0  0  0  0
  4 26  1  0  0  0  0
  6  9  1  0  0  0  0
  6 12  1  0  0  0  0
  8 10  1  0  0  0  0
  8 11  2  0  0  0  0
  9 13  1  0  0  0  0
  9 14  1  0  0  0  0
  9 15  1  0  0  0  0
 10 16  1  0  0  0  0
 10 17  1  0  0  0  0
 10 18  1  0  0  0  0
 19 20  1  0  0  0  0
 20 21  4  0  0  0  0
 20 25  4  0  0  0  0
 21 22  4  0  0  0  0
 21 27  1  0  0  0  0
 22 23  4  0  0  0  0
 22 28  1  0  0  0  0
 23 24  4  0  0  0  0
 23 26  1  0  0  0  0
 24 25  4  0  0  0  0
 24 29  1  0  0  0  0
 25 30  1  0  0  0  0
 26 31  1  0  0  0  0
 26 32  1  0  0  0  0
M  END
> <BCLConfClusterSize>
1

> <ConfClashScore>
0 

> <ConfOneFourInteractionScore>
-0.960318 

> <ConfScore>
-0.254381 

> <ConfScorePBest>
0.00712182 

> <ConfTolerance>
0.154674 

> <RosettaParamsInstructions>
M  ROOT 3
M  POLY_N_BB 3
M  POLY_CA_BB 4
M  POLY_C_BB 2
M  POLY_O_BB 5
M  POLY_IGNORE 9 10 11 12 13 14 15 16 17 18 
M  POLY_UPPER 6
M  POLY_LOWER 8
M  POLY_CHG 0
M  POLY_PROPERTIES ALPHA_AA L_AA PROTEIN AROMATIC POLYMER 
M  END

$$$$



 32 32  0  0  0  0  0  0  0  0999 V2000
   -0.0013    2.9529   -0.3264 H   0  0  0  1  0  0  0  0  0  0  0  0
    0.8798    3.9622    1.3005 C   0  0  0  1  0  0  0  0  0  0  0  0
    0.7991    1.5632    0.9711 N   0  0  0  1  0  0  0  0  0  0  0  0
    0.0729    2.8052    0.7308 C   0  0  0  1  0  0  0  0  0  0  0  0
    0.7063    5.1155    0.9088 O   0  0  0  1  0  0  0  0  0  0  0  0
    1.7778    3.6381    2.2443 N   0  0  0  1  0  0  0  0  0  0  0  0
    0.3793    0.8433    1.4867 H   0  0  0  1  0  0  0  0  0  0  0  0
    2.0353    1.4050    0.4897 C   0  0  0  1  0  0  0  0  0  0  0  0
    2.6871    4.6170    2.8211 C   0  0  0  1  0  0  0  0  0  0  0  0
    2.7330    0.0768    0.7843 C   0  0  0  1  0  0  0  0  0  0  0  0
    2.6361    2.3059   -0.0943 O   0  0  0  1  0  0  0  0  0  0  0  0
    1.8225    2.7099    2.5557 H   0  0  0  1  0  0  0  0  0  0  0  0
    2.7878    5.4475    2.1539 H   0  0  0  1  0  0  0  0  0  0  0  0
    3.6449    4.1660    2.9758 H   0  0  0  1  0  0  0  0  0  0  0  0
    2.2971    4.9574    3.7575 H   0  0  0  1  0  0  0  0  0  0  0  0
    2.2019   -0.7194    0.3058 H   0  0  0  1  0  0  0  0  0  0  0  0
    2.7496   -0.0904    1.8410 H   0  0  0  1  0  0  0  0  0  0  0  0
    3.7356    0.1107    0.4122 H   0  0  0  1  0  0  0  0  0  0  0  0
   -4.3863    8.2498    0.3656 I   0  0  0  1  0  0  0  0  0  0  0  0
   -3.4144    6.4282    0.6898 C   0  0  0  1  0  0  0  0  0  0  0  0
   -2.5661    6.2780    1.7758 C   0  0  0  1  0  0  0  0  0  0  0  0
   -1.9195    5.0749    1.9867 C   0  0  0  1  0  0  0  0  0  0  0  0
   -2.1235    4.0165    1.1151 C   0  0  0  1  0  0  0  0  0  0  0  0
   -2.9693    4.1659    0.0322 C   0  0  0  1  0  0  0  0  0  0  0  0
   -3.6177    5.3728   -0.1792 C   0  0  0  1  0  0  0  0  0  0  0  0
   -1.3527    2.7287    1.2851 C   0  0  0  1  0  0  0  0  0  0  0  0
   -2.4162    7.0709    2.4319 H   0  0  0  1  0  0  0  0  0  0  0  0
   -1.2800    4.9636    2.7992 H   0  0  0  1  0  0  0  0  0  0  0  0
   -3.1191    3.3731   -0.6239 H   0  0  0  1  0  0  0  0  0  0  0  0
   -4.2572    5.4840   -0.9917 H   0  0  0  1  0  0  0  0  0  0  0  0
   -1.3005    2.4982    2.3286 H   0  0  0  1  0  0  0  0  0  0  0  0
   -1.8759    1.9485    0.7727 H   0  0  0  1  0  0  0  0  0  0  0  0
  1  4  1  0  0  0  0
  2  4  1  0  0  0  0
  2  5  2  0  0  0  0
  2  6  1  0  0  0  0
  3  4  1  0  0  0  0
  3  7  1  0  0  0  0
  3  8  1  0  0  0  0
  4 26  1  0  0  0  0
  6  9  1  0  0  0  0
  6 12  1  0  0  0  0
  8 10  1  0  0  0  0
  8 11  2  0  0  0  0
  9 13  1  0  0  0  0
  9 14  1  0  0  0  0
  9 15  1  0  0  0  0
 10 16  1  0  0  0  0
 10 17  1  0  0  0  0
 10 18  1  0  0  0  0
 19 20  1  0  0  0  0
 20 21  4  0  0  0  0
 20 25  4  0  0  0  0
 21 22  4  0  0  0  0
 21 27  1  0  0  0  0
 22 23  4  0  0  0  0
 22 28  1  0  0  0  0
 23 24  4  0  0  0  0
 23 26  1  0  0  0  0
 24 25  4  0  0  0  0
 24 29  1  0  0  0  0
 25 30  1  0  0  0  0
 26 31  1  0  0  0  0
 26 32  1  0  0  0  0
M  END
> <BCLConfClusterSize>
1

> <ConfClashScore>
0 

> <ConfOneFourInteractionScore>
-0.937775 

> <ConfScore>
-0.254381 

> <ConfScorePBest>
0.00709334 

> <ConfTolerance>
0.212371 

> <RosettaParamsInstructions>
M  ROOT 3
M  POLY_N_BB 3
M  POLY_CA_BB 4
M  POLY_C_BB 2
M  POLY_O_BB 5
M  POLY_IGNORE 9 10 11 12 13 14 15 16 17 18 
M  POLY_UPPER 6
M  POLY_LOWER 8
M  POLY_CHG 0
M  POLY_PROPERTIES ALPHA_AA L_AA PROTEIN AROMATIC POLYMER 
M  END

$$$$



 32 32  0  0  0  0  0  0  0  0999 V2000
   -2.5692    2.0579    2.9471 H   0  0  0  1  0  0  0  0  0  0  0  0
   -3.6319    1.5769    1.1955 C   0  0  0  1  0  0  0  0  0  0  0  0
   -1.6452    0.4145    2.1179 N   0  0  0  1  0  0  0  0  0  0  0  0
   -2.3278    1.6950    1.9699 C   0  0  0  1  0  0  0  0  0  0  0  0
   -4.6513    2.1552    1.5698 O   0  0  0  1  0  0  0  0  0  0  0  0
   -3.5890    0.8099    0.0946 N   0  0  0  1  0  0  0  0  0  0  0  0
   -0.7340    0.3212    1.7694 H   0  0  0  1  0  0  0  0  0  0  0  0
   -2.2238   -0.6445    2.7170 C   0  0  0  1  0  0  0  0  0  0  0  0
   -4.7322    0.6600   -0.7934 C   0  0  0  1  0  0  0  0  0  0  0  0
   -1.4422   -1.9420    2.5552 C   0  0  0  1  0  0  0  0  0  0  0  0
   -3.2702   -0.6034    3.3361 O   0  0  0  1  0  0  0  0  0  0  0  0
   -2.7591    0.3343   -0.1184 H   0  0  0  1  0  0  0  0  0  0  0  0
   -5.6331    0.6441   -0.2164 H   0  0  0  1  0  0  0  0  0  0  0  0
   -4.6421   -0.2561   -1.3389 H   0  0  0  1  0  0  0  0  0  0  0  0
   -4.7618    1.4818   -1.4780 H   0  0  0  1  0  0  0  0  0  0  0  0
   -1.5172   -2.2802    1.5429 H   0  0  0  1  0  0  0  0  0  0  0  0
   -1.8461   -2.6854    3.2103 H   0  0  0  1  0  0  0  0  0  0  0  0
   -0.4143   -1.7716    2.7989 H   0  0  0  1  0  0  0  0  0  0  0  0
   -4.4032    8.2433    0.3789 I   0  0  0  1  0  0  0  0  0  0  0  0
   -3.4175    6.4271    0.6918 C   0  0  0  1  0  0  0  0  0  0  0  0
   -2.5641    6.2783    1.7740 C   0  0  0  1  0  0  0  0  0  0  0  0
   -1.9084    5.0788    1.9774 C   0  0  0  1  0  0  0  0  0  0  0  0
   -2.1083    4.0227    1.1021 C   0  0  0  1  0  0  0  0  0  0  0  0
   -2.9591    4.1708    0.0229 C   0  0  0  1  0  0  0  0  0  0  0  0
   -3.6167    5.3740   -0.1809 C   0  0  0  1  0  0  0  0  0  0  0  0
   -1.3965    2.7096    1.3270 C   0  0  0  1  0  0  0  0  0  0  0  0
   -2.4173    7.0693    2.4330 H   0  0  0  1  0  0  0  0  0  0  0  0
   -1.2651    4.9685    2.7871 H   0  0  0  1  0  0  0  0  0  0  0  0
   -3.1058    3.3797   -0.6360 H   0  0  0  1  0  0  0  0  0  0  0  0
   -4.2600    5.4843   -0.9906 H   0  0  0  1  0  0  0  0  0  0  0  0
   -1.0581    2.3283    0.3862 H   0  0  0  1  0  0  0  0  0  0  0  0
   -0.5565    2.8714    1.9698 H   0  0  0  1  0  0  0  0  0  0  0  0
  1  4  1  0  0  0  0
  2  4  1  0  0  0  0
  2  5  2  0  0  0  0
  2  6  1  0  0  0  0
  3  4  1  0  0  0  0
  3  7  1  0  0  0  0
  3  8  1  0  0  0  0
  4 26  1  0  0  0  0
  6  9  1  0  0  0  0
  6 12  1  0  0  0  0
  8 10  1  0  0  0  0
  8 11  2  0  0  0  0
  9 13  1  0  0  0  0
  9 14  1  0  0  0  0
  9 15  1  0  0  0  0
 10 16  1  0  0  0  0
 10 17  1  0  0  0  0
 10 18  1  0  0  0  0
 19 20  1  0  0  0  0
 20 21  4  0  0  0  0
 20 25  4  0  0  0  0
 21 22  4  0  0  0  0
 21 27  1  0  0  0  0
 22 23  4  0  0  0  0
 22 28  1  0  0  0  0
 23 24  4  0  0  0  0
 23 26  1  0  0  0  0
 24 25  4  0  0  0  0
 24 29  1  0  0  0  0
 25 30  1  0  0  0  0
 26 31  1  0  0  0  0
 26 32  1  0  0  0  0
M  END
> <BCLConfClusterSize>
1

> <ConfClashScore>
0 

> <ConfOneFourInteractionScore>
-0.956443 

> <ConfScore>
-0.253125 

> <ConfScorePBest>
0.00706485 

> <ConfTolerance>
0.23846 

> <RosettaParamsInstructions>
M  ROOT 3
M  POLY_N_BB 3
M  POLY_CA_BB 4
M  POLY_C_BB 2
M  POLY_O_BB 5
M  POLY_IGNORE 9 10 11 12 13 14 15 16 17 18 
M  POLY_UPPER 6
M  POLY_LOWER 8
M  POLY_CHG 0
M  POLY_PROPERTIES ALPHA_AA L_AA PROTEIN AROMATIC POLYMER 
M  END

$$$$



 32 32  0  0  0  0  0  0  0  0999 V2000
   -2.1301    2.3464    3.2855 H   0  0  0  1  0  0  0  0  0  0  0  0
   -3.4405    1.3534    2.0053 C   0  0  0  1  0  0  0  0  0  0  0  0
   -1.1730    0.6354    2.6545 N   0  0  0  1  0  0  0  0  0  0  0  0
   -2.0423    1.7972    2.3715 C   0  0  0  1  0  0  0  0  0  0  0  0
   -4.3833    2.1430    2.0429 O   0  0  0  1  0  0  0  0  0  0  0  0
   -3.6211    0.0747    1.6388 N   0  0  0  1  0  0  0  0  0  0  0  0
   -0.3232    0.5523    2.1736 H   0  0  0  1  0  0  0  0  0  0  0  0
   -1.5058   -0.3052    3.5430 C   0  0  0  1  0  0  0  0  0  0  0  0
   -4.8802   -0.4063    1.0900 C   0  0  0  1  0  0  0  0  0  0  0  0
   -0.5124   -1.4393    3.7049 C   0  0  0  1  0  0  0  0  0  0  0  0
   -2.5453   -0.2704    4.1961 O   0  0  0  1  0  0  0  0  0  0  0  0
   -2.8793   -0.5569    1.7446 H   0  0  0  1  0  0  0  0  0  0  0  0
   -5.6809    0.2126    1.4374 H   0  0  0  1  0  0  0  0  0  0  0  0
   -5.0455   -1.4146    1.4077 H   0  0  0  1  0  0  0  0  0  0  0  0
   -4.8400   -0.3706    0.0214 H   0  0  0  1  0  0  0  0  0  0  0  0
    0.4110   -1.0539    4.0839 H   0  0  0  1  0  0  0  0  0  0  0  0
   -0.3423   -1.9024    2.7554 H   0  0  0  1  0  0  0  0  0  0  0  0
   -0.9048   -2.1619    4.3895 H   0  0  0  1  0  0  0  0  0  0  0  0
   -4.3516    8.2822    0.4717 I   0  0  0  1  0  0  0  0  0  0  0  0
   -3.4290    6.4175    0.6706 C   0  0  0  1  0  0  0  0  0  0  0  0
   -2.5773    6.2769    1.7552 C   0  0  0  1  0  0  0  0  0  0  0  0
   -1.9178    5.0807    1.9658 C   0  0  0  1  0  0  0  0  0  0  0  0
   -2.1121    4.0197    1.0951 C   0  0  0  1  0  0  0  0  0  0  0  0
   -2.9612    4.1596    0.0136 C   0  0  0  1  0  0  0  0  0  0  0  0
   -3.6226    5.3595   -0.1974 C   0  0  0  1  0  0  0  0  0  0  0  0
   -1.3714    2.7334    1.3749 C   0  0  0  1  0  0  0  0  0  0  0  0
   -2.4347    7.0716    2.4107 H   0  0  0  1  0  0  0  0  0  0  0  0
   -1.2758    4.9767    2.7773 H   0  0  0  1  0  0  0  0  0  0  0  0
   -3.1038    3.3649   -0.6419 H   0  0  0  1  0  0  0  0  0  0  0  0
   -4.2647    5.4636   -1.0090 H   0  0  0  1  0  0  0  0  0  0  0  0
   -1.2625    2.2073    0.4495 H   0  0  0  1  0  0  0  0  0  0  0  0
   -0.4048    2.9858    1.7582 H   0  0  0  1  0  0  0  0  0  0  0  0
  1  4  1  0  0  0  0
  2  4  1  0  0  0  0
  2  5  2  0  0  0  0
  2  6  1  0  0  0  0
  3  4  1  0  0  0  0
  3  7  1  0  0  0  0
  3  8  1  0  0  0  0
  4 26  1  0  0  0  0
  6  9  1  0  0  0  0
  6 12  1  0  0  0  0
  8 10  1  0  0  0  0
  8 11  2  0  0  0  0
  9 13  1  0  0  0  0
  9 14  1  0  0  0  0
  9 15  1  0  0  0  0
 10 16  1  0  0  0  0
 10 17  1  0  0  0  0
 10 18  1  0  0  0  0
 19 20  1  0  0  0  0
 20 21  4  0  0  0  0
 20 25  4  0  0  0  0
 21 22  4  0  0  0  0
 21 27  1  0  0  0  0
 22 23  4  0  0  0  0
 22 28  1  0  0  0  0
 23 24  4  0  0  0  0
 23 26  1  0  0  0  0
 24 25  4  0  0  0  0
 24 29  1  0  0  0  0
 25 30  1  0  0  0  0
 26 31  1  0  0  0  0
 26 32  1  0  0  0  0
M  END
> <BCLConfClusterSize>
1

> <ConfClashScore>
0 

> <ConfOneFourInteractionScore>
-0.960318 

> <ConfScore>
-0.251388 

> <ConfScorePBest>
0.00703637 

> <ConfTolerance>
0.197783 

> <RosettaParamsInstructions>
M  ROOT 3
M  POLY_N_BB 3
M  POLY_CA_BB 4
M  POLY_C_BB 2
M  POLY_O_BB 5
M  POLY_IGNORE 9 10 11 12 13 14 15 16 17 18 
M  POLY_UPPER 6
M  POLY_LOWER 8
M  POLY_CHG 0
M  POLY_PROPERTIES ALPHA_AA L_AA PROTEIN AROMATIC POLYMER 
M  END

$$$$



 32 32  0  0  0  0  0  0  0  0999 V2000
   -2.9774    1.5448    0.4822 H   0  0  0  1  0  0  0  0  0  0  0  0
   -1.4972    0.2099    1.1775 C   0  0  0  1  0  0  0  0  0  0  0  0
   -3.0795    1.4598    2.5455 N   0  0  0  1  0  0  0  0  0  0  0  0
   -2.3059    1.4854    1.3131 C   0  0  0  1  0  0  0  0  0  0  0  0
   -1.2238   -0.2572    0.0751 O   0  0  0  1  0  0  0  0  0  0  0  0
   -1.1098   -0.3602    2.3295 N   0  0  0  1  0  0  0  0  0  0  0  0
   -2.9599    2.1847    3.1941 H   0  0  0  1  0  0  0  0  0  0  0  0
   -3.9457    0.4841    2.8229 C   0  0  0  1  0  0  0  0  0  0  0  0
   -0.3178   -1.5782    2.4128 C   0  0  0  1  0  0  0  0  0  0  0  0
   -4.6606    0.5971    4.1553 C   0  0  0  1  0  0  0  0  0  0  0  0
   -4.1633   -0.4538    2.0604 O   0  0  0  1  0  0  0  0  0  0  0  0
   -1.3773    0.0714    3.1677 H   0  0  0  1  0  0  0  0  0  0  0  0
    0.2727   -1.5600    3.3050 H   0  0  0  1  0  0  0  0  0  0  0  0
    0.3259   -1.6439    1.5606 H   0  0  0  1  0  0  0  0  0  0  0  0
   -0.9697   -2.4265    2.4342 H   0  0  0  1  0  0  0  0  0  0  0  0
   -3.9493    0.5158    4.9504 H   0  0  0  1  0  0  0  0  0  0  0  0
   -5.3818   -0.1887    4.2406 H   0  0  0  1  0  0  0  0  0  0  0  0
   -5.1554    1.5440    4.2151 H   0  0  0  1  0  0  0  0  0  0  0  0
   -4.3572    8.2545    0.3181 I   0  0  0  1  0  0  0  0  0  0  0  0
   -3.4381    6.4195    0.7128 C   0  0  0  1  0  0  0  0  0  0  0  0
   -2.5778    6.2759    1.7902 C   0  0  0  1  0  0  0  0  0  0  0  0
   -1.9062    5.0837    1.9845 C   0  0  0  1  0  0  0  0  0  0  0  0
   -2.0970    4.0296    1.1048 C   0  0  0  1  0  0  0  0  0  0  0  0
   -2.9548    4.1725    0.0305 C   0  0  0  1  0  0  0  0  0  0  0  0
   -3.6283    5.3683   -0.1642 C   0  0  0  1  0  0  0  0  0  0  0  0
   -1.3957    2.7019    1.2689 C   0  0  0  1  0  0  0  0  0  0  0  0
   -2.4376    7.0655    2.4525 H   0  0  0  1  0  0  0  0  0  0  0  0
   -1.2577    4.9775    2.7906 H   0  0  0  1  0  0  0  0  0  0  0  0
   -3.0949    3.3829   -0.6318 H   0  0  0  1  0  0  0  0  0  0  0  0
   -4.2768    5.4746   -0.9703 H   0  0  0  1  0  0  0  0  0  0  0  0
   -0.7222    2.5805    0.4464 H   0  0  0  1  0  0  0  0  0  0  0  0
   -0.8410    2.7325    2.1834 H   0  0  0  1  0  0  0  0  0  0  0  0
  1  4  1  0  0  0  0
  2  4  1  0  0  0  0
  2  5  2  0  0  0  0
  2  6  1  0  0  0  0
  3  4  1  0  0  0  0
  3  7  1  0  0  0  0
  3  8  1  0  0  0  0
  4 26  1  0  0  0  0
  6  9  1  0  0  0  0
  6 12  1  0  0  0  0
  8 10  1  0  0  0  0
  8 11  2  0  0  0  0
  9 13  1  0  0  0  0
  9 14  1  0  0  0  0
  9 15  1  0  0  0  0
 10 16  1  0  0  0  0
 10 17  1  0  0  0  0
 10 18  1  0  0  0  0
 19 20  1  0  0  0  0
 20 21  4  0  0  0  0
 20 25  4  0  0  0  0
 21 22  4  0  0  0  0
 21 27  1  0  0  0  0
 22 23  4  0  0  0  0
 22 28  1  0  0  0  0
 23 24  4  0  0  0  0
 23 26  1  0  0  0  0
 24 25  4  0  0  0  0
 24 29  1  0  0  0  0
 25 30  1  0  0  0  0
 26 31  1  0  0  0  0
 26 32  1  0  0  0  0
M  END
> <BCLConfClusterSize>
1

> <ConfClashScore>
0 

> <ConfOneFourInteractionScore>
-0.960318 

> <ConfScore>
-0.251227 

> <ConfScorePBest>
0.00700789 

> <ConfTolerance>
0.243312 

> <RosettaParamsInstructions>
M  ROOT 3
M  POLY_N_BB 3
M  POLY_CA_BB 4
M  POLY_C_BB 2
M  POLY_O_BB 5
M  POLY_IGNORE 9 10 11 12 13 14 15 16 17 18 
M  POLY_UPPER 6
M  POLY_LOWER 8
M  POLY_CHG 0
M  POLY_PROPERTIES ALPHA_AA L_AA PROTEIN AROMATIC POLYMER 
M  END

$$$$



 32 32  0  0  0  0  0  0  0  0999 V2000
   -3.0488    1.5348    1.9040 H   0  0  0  1  0  0  0  0  0  0  0  0
   -1.3395    0.6182    2.7231 C   0  0  0  1  0  0  0  0  0  0  0  0
   -2.4736    2.6727    3.5188 N   0  0  0  1  0  0  0  0  0  0  0  0
   -2.1369    1.8625    2.3577 C   0  0  0  1  0  0  0  0  0  0  0  0
   -1.6052   -0.4692    2.2380 O   0  0  0  1  0  0  0  0  0  0  0  0
   -0.3477    0.8012    3.5961 N   0  0  0  1  0  0  0  0  0  0  0  0
   -1.8645    3.4037    3.7532 H   0  0  0  1  0  0  0  0  0  0  0  0
   -3.5489    2.4951    4.2879 C   0  0  0  1  0  0  0  0  0  0  0  0
    0.4928   -0.2932    4.0585 C   0  0  0  1  0  0  0  0  0  0  0  0
   -3.7693    3.5386    5.3597 C   0  0  0  1  0  0  0  0  0  0  0  0
   -4.3230    1.5491    4.1491 O   0  0  0  1  0  0  0  0  0  0  0  0
   -0.1792    1.7040    3.9381 H   0  0  0  1  0  0  0  0  0  0  0  0
    0.5167   -1.0634    3.3161 H   0  0  0  1  0  0  0  0  0  0  0  0
    0.0942   -0.6884    4.9694 H   0  0  0  1  0  0  0  0  0  0  0  0
    1.4855    0.0677    4.2298 H   0  0  0  1  0  0  0  0  0  0  0  0
   -3.0029    4.2826    5.2968 H   0  0  0  1  0  0  0  0  0  0  0  0
   -3.7361    3.0731    6.3225 H   0  0  0  1  0  0  0  0  0  0  0  0
   -4.7250    3.9986    5.2180 H   0  0  0  1  0  0  0  0  0  0  0  0
   -4.4032    8.2433    0.3789 I   0  0  0  1  0  0  0  0  0  0  0  0
   -3.4175    6.4271    0.6918 C   0  0  0  1  0  0  0  0  0  0  0  0
   -2.5641    6.2783    1.7740 C   0  0  0  1  0  0  0  0  0  0  0  0
   -1.9084    5.0788    1.9774 C   0  0  0  1  0  0  0  0  0  0  0  0
   -2.1083    4.0227    1.1021 C   0  0  0  1  0  0  0  0  0  0  0  0
   -2.9591    4.1708    0.0229 C   0  0  0  1  0  0  0  0  0  0  0  0
   -3.6167    5.3740   -0.1809 C   0  0  0  1  0  0  0  0  0  0  0  0
   -1.3965    2.7096    1.3270 C   0  0  0  1  0  0  0  0  0  0  0  0
   -2.4173    7.0693    2.4330 H   0  0  0  1  0  0  0  0  0  0  0  0
   -1.2651    4.9685    2.7871 H   0  0  0  1  0  0  0  0  0  0  0  0
   -3.1058    3.3797   -0.6360 H   0  0  0  1  0  0  0  0  0  0  0  0
   -4.2600    5.4843   -0.9906 H   0  0  0  1  0  0  0  0  0  0  0  0
   -1.3481    2.1738    0.4020 H   0  0  0  1  0  0  0  0  0  0  0  0
   -0.4051    2.9038    1.6795 H   0  0  0  1  0  0  0  0  0  0  0  0
  1  4  1  0  0  0  0
  2  4  1  0  0  0  0
  2  5  2  0  0  0  0
  2  6  1  0  0  0  0
  3  4  1  0  0  0  0
  3  7  1  0  0  0  0
  3  8  1  0  0  0  0
  4 26  1  0  0  0  0
  6  9  1  0  0  0  0
  6 12  1  0  0  0  0
  8 10  1  0  0  0  0
  8 11  2  0  0  0  0
  9 13  1  0  0  0  0
  9 14  1  0  0  0  0
  9 15  1  0  0  0  0
 10 16  1  0  0  0  0
 10 17  1  0  0  0  0
 10 18  1  0  0  0  0
 19 20  1  0  0  0  0
 20 21  4  0  0  0  0
 20 25  4  0  0  0  0
 21 22  4  0  0  0  0
 21 27  1  0  0  0  0
 22 23  4  0  0  0  0
 22 28  1  0  0  0  0
 23 24  4  0  0  0  0
 23 26  1  0  0  0  0
 24 25  4  0  0  0  0
 24 29  1  0  0  0  0
 25 30  1  0  0  0  0
 26 31  1  0  0  0  0
 26 32  1  0  0  0  0
M  END
> <BCLConfClusterSize>
1

> <ConfClashScore>
0 

> <ConfOneFourInteractionScore>
-0.960318 

> <ConfScore>
-0.234088 

> <ConfScorePBest>
0.00697941 

> <ConfTolerance>
0.306667 

> <RosettaParamsInstructions>
M  ROOT 3
M  POLY_N_BB 3
M  POLY_CA_BB 4
M  POLY_C_BB 2
M  POLY_O_BB 5
M  POLY_IGNORE 9 10 11 12 13 14 15 16 17 18 
M  POLY_UPPER 6
M  POLY_LOWER 8
M  POLY_CHG 0
M  POLY_PROPERTIES ALPHA_AA L_AA PROTEIN AROMATIC POLYMER 
M  END

$$$$



 32 32  0  0  0  0  0  0  0  0999 V2000
    0.5038    3.6939    1.4967 H   0  0  0  1  0  0  0  0  0  0  0  0
    0.9006    1.6359    1.3580 C   0  0  0  1  0  0  0  0  0  0  0  0
    0.2719    3.1681   -0.4783 N   0  0  0  1  0  0  0  0  0  0  0  0
    0.1205    2.8662    0.9373 C   0  0  0  1  0  0  0  0  0  0  0  0
    1.1191    1.3964    2.5341 O   0  0  0  1  0  0  0  0  0  0  0  0
    1.3249    0.8448    0.3599 N   0  0  0  1  0  0  0  0  0  0  0  0
   -0.5200    3.3442   -1.0281 H   0  0  0  1  0  0  0  0  0  0  0  0
    1.5342    3.2071   -1.0507 C   0  0  0  1  0  0  0  0  0  0  0  0
    2.1744   -0.3014    0.6467 C   0  0  0  1  0  0  0  0  0  0  0  0
    1.6641    3.5379   -2.5110 C   0  0  0  1  0  0  0  0  0  0  0  0
    2.5018    2.9704   -0.3463 O   0  0  0  1  0  0  0  0  0  0  0  0
    1.0620    1.0397   -0.5639 H   0  0  0  1  0  0  0  0  0  0  0  0
    1.5779   -1.1892    0.6775 H   0  0  0  1  0  0  0  0  0  0  0  0
    2.6543   -0.1615    1.5927 H   0  0  0  1  0  0  0  0  0  0  0  0
    2.9155   -0.3963   -0.1192 H   0  0  0  1  0  0  0  0  0  0  0  0
    1.1994    4.4818   -2.7061 H   0  0  0  1  0  0  0  0  0  0  0  0
    1.1853    2.7780   -3.0926 H   0  0  0  1  0  0  0  0  0  0  0  0
    2.7000    3.5895   -2.7740 H   0  0  0  1  0  0  0  0  0  0  0  0
   -4.3863    8.2498    0.3656 I   0  0  0  1  0  0  0  0  0  0  0  0
   -3.4144    6.4282    0.6898 C   0  0  0  1  0  0  0  0  0  0  0  0
   -2.5661    6.2780    1.7758 C   0  0  0  1  0  0  0  0  0  0  0  0
   -1.9195    5.0749    1.9867 C   0  0  0  1  0  0  0  0  0  0  0  0
   -2.1235    4.0165    1.1151 C   0  0  0  1  0  0  0  0  0  0  0  0
   -2.9693    4.1659    0.0322 C   0  0  0  1  0  0  0  0  0  0  0  0
   -3.6177    5.3728   -0.1792 C   0  0  0  1  0  0  0  0  0  0  0  0
   -1.3527    2.7287    1.2851 C   0  0  0  1  0  0  0  0  0  0  0  0
   -2.4162    7.0709    2.4319 H   0  0  0  1  0  0  0  0  0  0  0  0
   -1.2800    4.9636    2.7992 H   0  0  0  1  0  0  0  0  0  0  0  0
   -3.1191    3.3731   -0.6239 H   0  0  0  1  0  0  0  0  0  0  0  0
   -4.2572    5.4840   -0.9917 H   0  0  0  1  0  0  0  0  0  0  0  0
   -1.4341    2.4151    2.3048 H   0  0  0  1  0  0  0  0  0  0  0  0
   -1.7853    1.9862    0.6475 H   0  0  0  1  0  0  0  0  0  0  0  0
  1  4  1  0  0  0  0
  2  4  1  0  0  0  0
  2  5  2  0  0  0  0
  2  6  1  0  0  0  0
  3  4  1  0  0  0  0
  3  7  1  0  0  0  0
  3  8  1  0  0  0  0
  4 26  1  0  0  0  0
  6  9  1  0  0  0  0
  6 12  1  0  0  0  0
  8 10  1  0  0  0  0
  8 11  2  0  0  0  0
  9 13  1  0  0  0  0
  9 14  1  0  0  0  0
  9 15  1  0  0  0  0
 10 16  1  0  0  0  0
 10 17  1  0  0  0  0
 10 18  1  0  0  0  0
 19 20  1  0  0  0  0
 20 21  4  0  0  0  0
 20 25  4  0  0  0  0
 21 22  4  0  0  0  0
 21 27  1  0  0  0  0
 22 23  4  0  0  0  0
 22 28  1  0  0  0  0
 23 24  4  0  0  0  0
 23 26  1  0  0  0  0
 24 25  4  0  0  0  0
 24 29  1  0  0  0  0
 25 30  1  0  0  0  0
 26 31  1  0  0  0  0
 26 32  1  0  0  0  0
M  END
> <BCLConfClusterSize>
1

> <ConfClashScore>
0 

> <ConfOneFourInteractionScore>
-0.960318 

> <ConfScore>
-0.227729 

> <ConfScorePBest>
0.00695093 

> <ConfTolerance>
0.262173 

> <RosettaParamsInstructions>
M  ROOT 3
M  POLY_N_BB 3
M  POLY_CA_BB 4
M  POLY_C_BB 2
M  POLY_O_BB 5
M  POLY_IGNORE 9 10 11 12 13 14 15 16 17 18 
M  POLY_UPPER 6
M  POLY_LOWER 8
M  POLY_CHG 0
M  POLY_PROPERTIES ALPHA_AA L_AA PROTEIN AROMATIC POLYMER 
M  END

$$$$



 32 32  0  0  0  0  0  0  0  0999 V2000
    0.5335    3.4773    1.0000 H   0  0  0  1  0  0  0  0  0  0  0  0
    0.6617    1.3569    1.0798 C   0  0  0  1  0  0  0  0  0  0  0  0
   -0.1551    2.7043   -0.8001 N   0  0  0  1  0  0  0  0  0  0  0  0
   -0.0362    2.6423    0.6490 C   0  0  0  1  0  0  0  0  0  0  0  0
    0.6576    0.3631    0.3545 O   0  0  0  1  0  0  0  0  0  0  0  0
    1.2749    1.3430    2.2636 N   0  0  0  1  0  0  0  0  0  0  0  0
   -0.9786    2.3803   -1.2213 H   0  0  0  1  0  0  0  0  0  0  0  0
    0.8233    3.1895   -1.5794 C   0  0  0  1  0  0  0  0  0  0  0  0
    1.8847    0.1611    2.8545 C   0  0  0  1  0  0  0  0  0  0  0  0
    0.5531    3.2209   -3.0891 C   0  0  0  1  0  0  0  0  0  0  0  0
    1.8650    3.6683   -1.1330 O   0  0  0  1  0  0  0  0  0  0  0  0
    1.3178    2.1821    2.7680 H   0  0  0  1  0  0  0  0  0  0  0  0
    2.3078   -0.4466    2.0821 H   0  0  0  1  0  0  0  0  0  0  0  0
    1.1401   -0.3988    3.3809 H   0  0  0  1  0  0  0  0  0  0  0  0
    2.6545    0.4596    3.5351 H   0  0  0  1  0  0  0  0  0  0  0  0
   -0.3138    3.8168   -3.2844 H   0  0  0  1  0  0  0  0  0  0  0  0
    0.3878    2.2246   -3.4424 H   0  0  0  1  0  0  0  0  0  0  0  0
    1.3970    3.6433   -3.5934 H   0  0  0  1  0  0  0  0  0  0  0  0
   -4.4059    8.2409    0.3740 I   0  0  0  1  0  0  0  0  0  0  0  0
   -3.4171    6.4273    0.6924 C   0  0  0  1  0  0  0  0  0  0  0  0
   -2.5646    6.2828    1.7759 C   0  0  0  1  0  0  0  0  0  0  0  0
   -1.9069    5.0850    1.9830 C   0  0  0  1  0  0  0  0  0  0  0  0
   -2.1039    4.0264    1.1101 C   0  0  0  1  0  0  0  0  0  0  0  0
   -2.9538    4.1702    0.0297 C   0  0  0  1  0  0  0  0  0  0  0  0
   -3.6134    5.3716   -0.1778 C   0  0  0  1  0  0  0  0  0  0  0  0
   -1.4177    2.6926    1.2883 C   0  0  0  1  0  0  0  0  0  0  0  0
   -2.4200    7.0758    2.4331 H   0  0  0  1  0  0  0  0  0  0  0  0
   -1.2643    4.9780    2.7937 H   0  0  0  1  0  0  0  0  0  0  0  0
   -3.0984    3.3772   -0.6274 H   0  0  0  1  0  0  0  0  0  0  0  0
   -4.2560    5.4787   -0.9885 H   0  0  0  1  0  0  0  0  0  0  0  0
   -1.3155    2.4994    2.3358 H   0  0  0  1  0  0  0  0  0  0  0  0
   -2.0269    1.9340    0.8430 H   0  0  0  1  0  0  0  0  0  0  0  0
  1  4  1  0  0  0  0
  2  4  1  0  0  0  0
  2  5  2  0  0  0  0
  2  6  1  0  0  0  0
  3  4  1  0  0  0  0
  3  7  1  0  0  0  0
  3  8  1  0  0  0  0
  4 26  1  0  0  0  0
  6  9  1  0  0  0  0
  6 12  1  0  0  0  0
  8 10  1  0  0  0  0
  8 11  2  0  0  0  0
  9 13  1  0  0  0  0
  9 14  1  0  0  0  0
  9 15  1  0  0  0  0
 10 16  1  0  0  0  0
 10 17  1  0  0  0  0
 10 18  1  0  0  0  0
 19 20  1  0  0  0  0
 20 21  4  0  0  0  0
 20 25  4  0  0  0  0
 21 22  4  0  0  0  0
 21 27  1  0  0  0  0
 22 23  4  0  0  0  0
 22 28  1  0  0  0  0
 23 24  4  0  0  0  0
 23 26  1  0  0  0  0
 24 25  4  0  0  0  0
 24 29  1  0  0  0  0
 25 30  1  0  0  0  0
 26 31  1  0  0  0  0
 26 32  1  0  0  0  0
M  END
> <BCLConfClusterSize>
1

> <ConfClashScore>
0 

> <ConfOneFourInteractionScore>
-0.985807 

> <ConfScore>
-0.222119 

> <ConfScorePBest>
0.00692245 

> <ConfTolerance>
0.148135 

> <RosettaParamsInstructions>
M  ROOT 3
M  POLY_N_BB 3
M  POLY_CA_BB 4
M  POLY_C_BB 2
M  POLY_O_BB 5
M  POLY_IGNORE 9 10 11 12 13 14 15 16 17 18 
M  POLY_UPPER 6
M  POLY_LOWER 8
M  POLY_CHG 0
M  POLY_PROPERTIES ALPHA_AA L_AA PROTEIN AROMATIC POLYMER 
M  END

$$$$



 32 32  0  0  0  0  0  0  0  0999 V2000
   -2.7814    2.0258    2.7961 H   0  0  0  1  0  0  0  0  0  0  0  0
   -3.3640    1.2441    0.9011 C   0  0  0  1  0  0  0  0  0  0  0  0
   -1.4764    0.4892    2.2719 N   0  0  0  1  0  0  0  0  0  0  0  0
   -2.3034    1.6345    1.9225 C   0  0  0  1  0  0  0  0  0  0  0  0
   -4.5090    1.6892    0.9677 O   0  0  0  1  0  0  0  0  0  0  0  0
   -2.9646    0.3948   -0.0588 N   0  0  0  1  0  0  0  0  0  0  0  0
   -0.5055    0.5865    2.1801 H   0  0  0  1  0  0  0  0  0  0  0  0
   -1.9409   -0.6850    2.7085 C   0  0  0  1  0  0  0  0  0  0  0  0
   -3.8169   -0.1273   -1.1166 C   0  0  0  1  0  0  0  0  0  0  0  0
   -0.8928   -1.7174    3.0572 C   0  0  0  1  0  0  0  0  0  0  0  0
   -3.1411   -0.9287    2.8259 O   0  0  0  1  0  0  0  0  0  0  0  0
   -2.0287    0.1045   -0.0462 H   0  0  0  1  0  0  0  0  0  0  0  0
   -4.1974    0.6837   -1.7017 H   0  0  0  1  0  0  0  0  0  0  0  0
   -4.6324   -0.6676   -0.6832 H   0  0  0  1  0  0  0  0  0  0  0  0
   -3.2473   -0.7819   -1.7427 H   0  0  0  1  0  0  0  0  0  0  0  0
    0.0817   -1.3028    2.9044 H   0  0  0  1  0  0  0  0  0  0  0  0
   -1.0167   -2.5765    2.4314 H   0  0  0  1  0  0  0  0  0  0  0  0
   -1.0016   -2.0037    4.0824 H   0  0  0  1  0  0  0  0  0  0  0  0
   -4.4282    8.2202    0.3317 I   0  0  0  1  0  0  0  0  0  0  0  0
   -3.4115    6.4323    0.7029 C   0  0  0  1  0  0  0  0  0  0  0  0
   -2.5568    6.2769    1.7831 C   0  0  0  1  0  0  0  0  0  0  0  0
   -1.9042    5.0747    1.9808 C   0  0  0  1  0  0  0  0  0  0  0  0
   -2.1085    4.0226    1.1017 C   0  0  0  1  0  0  0  0  0  0  0  0
   -2.9606    4.1774    0.0245 C   0  0  0  1  0  0  0  0  0  0  0  0
   -3.6151    5.3832   -0.1735 C   0  0  0  1  0  0  0  0  0  0  0  0
   -1.4001    2.7066    1.3203 C   0  0  0  1  0  0  0  0  0  0  0  0
   -2.4067    7.0649    2.4450 H   0  0  0  1  0  0  0  0  0  0  0  0
   -1.2599    4.9595    2.7890 H   0  0  0  1  0  0  0  0  0  0  0  0
   -3.1108    3.3893   -0.6372 H   0  0  0  1  0  0  0  0  0  0  0  0
   -4.2595    5.4985   -0.9817 H   0  0  0  1  0  0  0  0  0  0  0  0
   -1.0360    2.3551    0.3776 H   0  0  0  1  0  0  0  0  0  0  0  0
   -0.5762    2.8694    1.9832 H   0  0  0  1  0  0  0  0  0  0  0  0
  1  4  1  0  0  0  0
  2  4  1  0  0  0  0
  2  5  2  0  0  0  0
  2  6  1  0  0  0  0
  3  4  1  0  0  0  0
  3  7  1  0  0  0  0
  3  8  1  0  0  0  0
  4 26  1  0  0  0  0
  6  9  1  0  0  0  0
  6 12  1  0  0  0  0
  8 10  1  0  0  0  0
  8 11  2  0  0  0  0
  9 13  1  0  0  0  0
  9 14  1  0  0  0  0
  9 15  1  0  0  0  0
 10 16  1  0  0  0  0
 10 17  1  0  0  0  0
 10 18  1  0  0  0  0
 19 20  1  0  0  0  0
 20 21  4  0  0  0  0
 20 25  4  0  0  0  0
 21 22  4  0  0  0  0
 21 27  1  0  0  0  0
 22 23  4  0  0  0  0
 22 28  1  0  0  0  0
 23 24  4  0  0  0  0
 23 26  1  0  0  0  0
 24 25  4  0  0  0  0
 24 29  1  0  0  0  0
 25 30  1  0  0  0  0
 26 31  1  0  0  0  0
 26 32  1  0  0  0  0
M  END
> <BCLConfClusterSize>
1

> <ConfClashScore>
0 

> <ConfOneFourInteractionScore>
-0.960318 

> <ConfScore>
-0.220828 

> <ConfScorePBest>
0.00689397 

> <ConfTolerance>
0.248032 

> <RosettaParamsInstructions>
M  ROOT 3
M  POLY_N_BB 3
M  POLY_CA_BB 4
M  POLY_C_BB 2
M  POLY_O_BB 5
M  POLY_IGNORE 9 10 11 12 13 14 15 16 17 18 
M  POLY_UPPER 6
M  POLY_LOWER 8
M  POLY_CHG 0
M  POLY_PROPERTIES ALPHA_AA L_AA PROTEIN AROMATIC POLYMER 
M  END

$$$$



 32 32  0  0  0  0  0  0  0  0999 V2000
   -1.9170    2.3529    3.3281 H   0  0  0  1  0  0  0  0  0  0  0  0
   -3.4750    1.5712    2.1690 C   0  0  0  1  0  0  0  0  0  0  0  0
   -1.2729    0.5663    2.5597 N   0  0  0  1  0  0  0  0  0  0  0  0
   -1.9976    1.8175    2.4052 C   0  0  0  1  0  0  0  0  0  0  0  0
   -4.3317    2.2963    2.6730 O   0  0  0  1  0  0  0  0  0  0  0  0
   -3.7735    0.5236    1.3845 N   0  0  0  1  0  0  0  0  0  0  0  0
   -0.6251    0.2891    1.8786 H   0  0  0  1  0  0  0  0  0  0  0  0
   -1.4874   -0.2033    3.6246 C   0  0  0  1  0  0  0  0  0  0  0  0
   -5.1223    0.0208    1.1704 C   0  0  0  1  0  0  0  0  0  0  0  0
   -0.7274   -1.5211    3.7253 C   0  0  0  1  0  0  0  0  0  0  0  0
   -2.2636    0.0850    4.5346 O   0  0  0  1  0  0  0  0  0  0  0  0
   -3.0362    0.0684    0.9268 H   0  0  0  1  0  0  0  0  0  0  0  0
   -5.8320    0.7498    1.5017 H   0  0  0  1  0  0  0  0  0  0  0  0
   -5.2571   -0.8850    1.7239 H   0  0  0  1  0  0  0  0  0  0  0  0
   -5.2696   -0.1721    0.1283 H   0  0  0  1  0  0  0  0  0  0  0  0
   -1.4062   -2.3058    3.9867 H   0  0  0  1  0  0  0  0  0  0  0  0
    0.0296   -1.4395    4.4771 H   0  0  0  1  0  0  0  0  0  0  0  0
   -0.2722   -1.7429    2.7827 H   0  0  0  1  0  0  0  0  0  0  0  0
   -4.4032    8.2433    0.3789 I   0  0  0  1  0  0  0  0  0  0  0  0
   -3.4175    6.4271    0.6918 C   0  0  0  1  0  0  0  0  0  0  0  0
   -2.5641    6.2783    1.7740 C   0  0  0  1  0  0  0  0  0  0  0  0
   -1.9084    5.0788    1.9774 C   0  0  0  1  0  0  0  0  0  0  0  0
   -2.1083    4.0227    1.1021 C   0  0  0  1  0  0  0  0  0  0  0  0
   -2.9591    4.1708    0.0229 C   0  0  0  1  0  0  0  0  0  0  0  0
   -3.6167    5.3740   -0.1809 C   0  0  0  1  0  0  0  0  0  0  0  0
   -1.3965    2.7096    1.3270 C   0  0  0  1  0  0  0  0  0  0  0  0
   -2.4173    7.0693    2.4330 H   0  0  0  1  0  0  0  0  0  0  0  0
   -1.2651    4.9685    2.7871 H   0  0  0  1  0  0  0  0  0  0  0  0
   -3.1058    3.3797   -0.6360 H   0  0  0  1  0  0  0  0  0  0  0  0
   -4.2600    5.4843   -0.9906 H   0  0  0  1  0  0  0  0  0  0  0  0
   -1.4071    2.1663    0.4053 H   0  0  0  1  0  0  0  0  0  0  0  0
   -0.3854    2.9252    1.6028 H   0  0  0  1  0  0  0  0  0  0  0  0
  1  4  1  0  0  0  0
  2  4  1  0  0  0  0
  2  5  2  0  0  0  0
  2  6  1  0  0  0  0
  3  4  1  0  0  0  0
  3  7  1  0  0  0  0
  3  8  1  0  0  0  0
  4 26  1  0  0  0  0
  6  9  1  0  0  0  0
  6 12  1  0  0  0  0
  8 10  1  0  0  0  0
  8 11  2  0  0  0  0
  9 13  1  0  0  0  0
  9 14  1  0  0  0  0
  9 15  1  0  0  0  0
 10 16  1  0  0  0  0
 10 17  1  0  0  0  0
 10 18  1  0  0  0  0
 19 20  1  0  0  0  0
 20 21  4  0  0  0  0
 20 25  4  0  0  0  0
 21 22  4  0  0  0  0
 21 27  1  0  0  0  0
 22 23  4  0  0  0  0
 22 28  1  0  0  0  0
 23 24  4  0  0  0  0
 23 26  1  0  0  0  0
 24 25  4  0  0  0  0
 24 29  1  0  0  0  0
 25 30  1  0  0  0  0
 26 31  1  0  0  0  0
 26 32  1  0  0  0  0
M  END
> <BCLConfClusterSize>
1

> <ConfClashScore>
0 

> <ConfOneFourInteractionScore>
-0.960318 

> <ConfScore>
-0.219914 

> <ConfScorePBest>
0.00686549 

> <ConfTolerance>
0.206038 

> <RosettaParamsInstructions>
M  ROOT 3
M  POLY_N_BB 3
M  POLY_CA_BB 4
M  POLY_C_BB 2
M  POLY_O_BB 5
M  POLY_IGNORE 9 10 11 12 13 14 15 16 17 18 
M  POLY_UPPER 6
M  POLY_LOWER 8
M  POLY_CHG 0
M  POLY_PROPERTIES ALPHA_AA L_AA PROTEIN AROMATIC POLYMER 
M  END

$$$$



 32 32  0  0  0  0  0  0  0  0999 V2000
   -3.1070    1.6213    1.8941 H   0  0  0  1  0  0  0  0  0  0  0  0
   -1.4589    0.4213    2.4061 C   0  0  0  1  0  0  0  0  0  0  0  0
   -2.3041    2.3912    3.6167 N   0  0  0  1  0  0  0  0  0  0  0  0
   -2.1326    1.7878    2.3035 C   0  0  0  1  0  0  0  0  0  0  0  0
   -1.5668   -0.4013    1.5117 O   0  0  0  1  0  0  0  0  0  0  0  0
   -0.8281    0.1837    3.5670 N   0  0  0  1  0  0  0  0  0  0  0  0
   -1.6186    3.0091    3.9465 H   0  0  0  1  0  0  0  0  0  0  0  0
   -3.3636    2.1322    4.3883 C   0  0  0  1  0  0  0  0  0  0  0  0
   -0.1188   -1.0604    3.8259 C   0  0  0  1  0  0  0  0  0  0  0  0
   -3.3532    2.7782    5.7601 C   0  0  0  1  0  0  0  0  0  0  0  0
   -4.2958    1.4189    4.0267 O   0  0  0  1  0  0  0  0  0  0  0  0
   -0.8458    0.8719    4.2645 H   0  0  0  1  0  0  0  0  0  0  0  0
    0.3555   -1.3948    2.9269 H   0  0  0  1  0  0  0  0  0  0  0  0
   -0.8124   -1.8032    4.1605 H   0  0  0  1  0  0  0  0  0  0  0  0
    0.6221   -0.8979    4.5805 H   0  0  0  1  0  0  0  0  0  0  0  0
   -3.5010    2.0284    6.5090 H   0  0  0  1  0  0  0  0  0  0  0  0
   -4.1397    3.5012    5.8195 H   0  0  0  1  0  0  0  0  0  0  0  0
   -2.4116    3.2607    5.9197 H   0  0  0  1  0  0  0  0  0  0  0  0
   -4.4032    8.2433    0.3789 I   0  0  0  1  0  0  0  0  0  0  0  0
   -3.4175    6.4271    0.6918 C   0  0  0  1  0  0  0  0  0  0  0  0
   -2.5641    6.2783    1.7740 C   0  0  0  1  0  0  0  0  0  0  0  0
   -1.9084    5.0788    1.9774 C   0  0  0  1  0  0  0  0  0  0  0  0
   -2.1083    4.0227    1.1021 C   0  0  0  1  0  0  0  0  0  0  0  0
   -2.9591    4.1708    0.0229 C   0  0  0  1  0  0  0  0  0  0  0  0
   -3.6167    5.3740   -0.1809 C   0  0  0  1  0  0  0  0  0  0  0  0
   -1.3965    2.7096    1.3270 C   0  0  0  1  0  0  0  0  0  0  0  0
   -2.4173    7.0693    2.4330 H   0  0  0  1  0  0  0  0  0  0  0  0
   -1.2651    4.9685    2.7871 H   0  0  0  1  0  0  0  0  0  0  0  0
   -3.1058    3.3797   -0.6360 H   0  0  0  1  0  0  0  0  0  0  0  0
   -4.2600    5.4843   -0.9906 H   0  0  0  1  0  0  0  0  0  0  0  0
   -1.3049    2.2065    0.3871 H   0  0  0  1  0  0  0  0  0  0  0  0
   -0.4222    2.9132    1.7195 H   0  0  0  1  0  0  0  0  0  0  0  0
  1  4  1  0  0  0  0
  2  4  1  0  0  0  0
  2  5  2  0  0  0  0
  2  6  1  0  0  0  0
  3  4  1  0  0  0  0
  3  7  1  0  0  0  0
  3  8  1  0  0  0  0
  4 26  1  0  0  0  0
  6  9  1  0  0  0  0
  6 12  1  0  0  0  0
  8 10  1  0  0  0  0
  8 11  2  0  0  0  0
  9 13  1  0  0  0  0
  9 14  1  0  0  0  0
  9 15  1  0  0  0  0
 10 16  1  0  0  0  0
 10 17  1  0  0  0  0
 10 18  1  0  0  0  0
 19 20  1  0  0  0  0
 20 21  4  0  0  0  0
 20 25  4  0  0  0  0
 21 22  4  0  0  0  0
 21 27  1  0  0  0  0
 22 23  4  0  0  0  0
 22 28  1  0  0  0  0
 23 24  4  0  0  0  0
 23 26  1  0  0  0  0
 24 25  4  0  0  0  0
 24 29  1  0  0  0  0
 25 30  1  0  0  0  0
 26 31  1  0  0  0  0
 26 32  1  0  0  0  0
M  END
> <BCLConfClusterSize>
1

> <ConfClashScore>
0 

> <ConfOneFourInteractionScore>
-0.94165 

> <ConfScore>
-0.218622 

> <ConfScorePBest>
0.00683701 

> <ConfTolerance>
0.187174 

> <RosettaParamsInstructions>
M  ROOT 3
M  POLY_N_BB 3
M  POLY_CA_BB 4
M  POLY_C_BB 2
M  POLY_O_BB 5
M  POLY_IGNORE 9 10 11 12 13 14 15 16 17 18 
M  POLY_UPPER 6
M  POLY_LOWER 8
M  POLY_CHG 0
M  POLY_PROPERTIES ALPHA_AA L_AA PROTEIN AROMATIC POLYMER 
M  END

$$$$



 32 32  0  0  0  0  0  0  0  0999 V2000
   -0.1898    2.3953   -0.3581 H   0  0  0  1  0  0  0  0  0  0  0  0
    0.8683    3.7374    0.8684 C   0  0  0  1  0  0  0  0  0  0  0  0
    0.6400    1.3574    1.2160 N   0  0  0  1  0  0  0  0  0  0  0  0
   -0.0372    2.5340    0.6918 C   0  0  0  1  0  0  0  0  0  0  0  0
    0.8024    4.6952    0.1156 O   0  0  0  1  0  0  0  0  0  0  0  0
    1.7313    3.6724    1.8946 N   0  0  0  1  0  0  0  0  0  0  0  0
    0.1691    0.7544    1.8284 H   0  0  0  1  0  0  0  0  0  0  0  0
    1.9077    1.0963    0.8625 C   0  0  0  1  0  0  0  0  0  0  0  0
    2.6605    4.7503    2.1984 C   0  0  0  1  0  0  0  0  0  0  0  0
    2.5229   -0.1427    1.4836 C   0  0  0  1  0  0  0  0  0  0  0  0
    2.5407    1.7992    0.0921 O   0  0  0  1  0  0  0  0  0  0  0  0
    1.7356    2.8711    2.4588 H   0  0  0  1  0  0  0  0  0  0  0  0
    2.9186    5.2643    1.2962 H   0  0  0  1  0  0  0  0  0  0  0  0
    3.5451    4.3438    2.6425 H   0  0  0  1  0  0  0  0  0  0  0  0
    2.2011    5.4354    2.8800 H   0  0  0  1  0  0  0  0  0  0  0  0
    2.2570   -1.0022    0.9045 H   0  0  0  1  0  0  0  0  0  0  0  0
    2.1580   -0.2592    2.4827 H   0  0  0  1  0  0  0  0  0  0  0  0
    3.5879   -0.0408    1.5020 H   0  0  0  1  0  0  0  0  0  0  0  0
   -4.4032    8.2433    0.3789 I   0  0  0  1  0  0  0  0  0  0  0  0
   -3.4175    6.4271    0.6918 C   0  0  0  1  0  0  0  0  0  0  0  0
   -2.5641    6.2783    1.7740 C   0  0  0  1  0  0  0  0  0  0  0  0
   -1.9084    5.0788    1.9774 C   0  0  0  1  0  0  0  0  0  0  0  0
   -2.1083    4.0227    1.1021 C   0  0  0  1  0  0  0  0  0  0  0  0
   -2.9591    4.1708    0.0229 C   0  0  0  1  0  0  0  0  0  0  0  0
   -3.6167    5.3740   -0.1809 C   0  0  0  1  0  0  0  0  0  0  0  0
   -1.3965    2.7096    1.3270 C   0  0  0  1  0  0  0  0  0  0  0  0
   -2.4173    7.0693    2.4330 H   0  0  0  1  0  0  0  0  0  0  0  0
   -1.2651    4.9685    2.7871 H   0  0  0  1  0  0  0  0  0  0  0  0
   -3.1058    3.3797   -0.6360 H   0  0  0  1  0  0  0  0  0  0  0  0
   -4.2600    5.4843   -0.9906 H   0  0  0  1  0  0  0  0  0  0  0  0
   -1.2745    2.5884    2.3831 H   0  0  0  1  0  0  0  0  0  0  0  0
   -2.0291    1.9337    0.9491 H   0  0  0  1  0  0  0  0  0  0  0  0
  1  4  1  0  0  0  0
  2  4  1  0  0  0  0
  2  5  2  0  0  0  0
  2  6  1  0  0  0  0
  3  4  1  0  0  0  0
  3  7  1  0  0  0  0
  3  8  1  0  0  0  0
  4 26  1  0  0  0  0
  6  9  1  0  0  0  0
  6 12  1  0  0  0  0
  8 10  1  0  0  0  0
  8 11  2  0  0  0  0
  9 13  1  0  0  0  0
  9 14  1  0  0  0  0
  9 15  1  0  0  0  0
 10 16  1  0  0  0  0
 10 17  1  0  0  0  0
 10 18  1  0  0  0  0
 19 20  1  0  0  0  0
 20 21  4  0  0  0  0
 20 25  4  0  0  0  0
 21 22  4  0  0  0  0
 21 27  1  0  0  0  0
 22 23  4  0  0  0  0
 22 28  1  0  0  0  0
 23 24  4  0  0  0  0
 23 26  1  0  0  0  0
 24 25  4  0  0  0  0
 24 29  1  0  0  0  0
 25 30  1  0  0  0  0
 26 31  1  0  0  0  0
 26 32  1  0  0  0  0
M  END
> <BCLConfClusterSize>
1

> <ConfClashScore>
0 

> <ConfOneFourInteractionScore>
-0.949394 

> <ConfScore>
-0.218078 

> <ConfScorePBest>
0.00680853 

> <ConfTolerance>
0.31463 

> <RosettaParamsInstructions>
M  ROOT 3
M  POLY_N_BB 3
M  POLY_CA_BB 4
M  POLY_C_BB 2
M  POLY_O_BB 5
M  POLY_IGNORE 9 10 11 12 13 14 15 16 17 18 
M  POLY_UPPER 6
M  POLY_LOWER 8
M  POLY_CHG 0
M  POLY_PROPERTIES ALPHA_AA L_AA PROTEIN AROMATIC POLYMER 
M  END

$$$$



 32 32  0  0  0  0  0  0  0  0999 V2000
    0.5104    3.5940    1.0433 H   0  0  0  1  0  0  0  0  0  0  0  0
    0.8278    1.5357    1.3040 C   0  0  0  1  0  0  0  0  0  0  0  0
   -0.1160    2.7063   -0.7079 N   0  0  0  1  0  0  0  0  0  0  0  0
    0.0176    2.6910    0.7491 C   0  0  0  1  0  0  0  0  0  0  0  0
    1.5673    1.6768    2.2524 O   0  0  0  1  0  0  0  0  0  0  0  0
    0.6389    0.3799    0.6479 N   0  0  0  1  0  0  0  0  0  0  0  0
   -0.8242    2.1714   -1.1235 H   0  0  0  1  0  0  0  0  0  0  0  0
    0.7245    3.4512   -1.5210 C   0  0  0  1  0  0  0  0  0  0  0  0
    1.3360   -0.8443    1.0129 C   0  0  0  1  0  0  0  0  0  0  0  0
    0.5050    3.4358   -3.0077 C   0  0  0  1  0  0  0  0  0  0  0  0
    1.6166    4.0961   -1.0007 O   0  0  0  1  0  0  0  0  0  0  0  0
    0.0095    0.3597   -0.1031 H   0  0  0  1  0  0  0  0  0  0  0  0
    1.6732   -0.7747    2.0260 H   0  0  0  1  0  0  0  0  0  0  0  0
    2.1771   -0.9819    0.3660 H   0  0  0  1  0  0  0  0  0  0  0  0
    0.6704   -1.6763    0.9152 H   0  0  0  1  0  0  0  0  0  0  0  0
    0.9052    2.5324   -3.4184 H   0  0  0  1  0  0  0  0  0  0  0  0
    0.9972    4.2769   -3.4494 H   0  0  0  1  0  0  0  0  0  0  0  0
   -0.5437    3.4869   -3.2137 H   0  0  0  1  0  0  0  0  0  0  0  0
   -4.4008    8.2457    0.3836 I   0  0  0  1  0  0  0  0  0  0  0  0
   -3.4179    6.4270    0.6911 C   0  0  0  1  0  0  0  0  0  0  0  0
   -2.5638    6.2742    1.7722 C   0  0  0  1  0  0  0  0  0  0  0  0
   -1.9099    5.0731    1.9721 C   0  0  0  1  0  0  0  0  0  0  0  0
   -2.1125    4.0194    1.0945 C   0  0  0  1  0  0  0  0  0  0  0  0
   -2.9641    4.1716    0.0165 C   0  0  0  1  0  0  0  0  0  0  0  0
   -3.6198    5.3763   -0.1838 C   0  0  0  1  0  0  0  0  0  0  0  0
   -1.3757    2.7237    1.3635 C   0  0  0  1  0  0  0  0  0  0  0  0
   -2.4149    7.0635    2.4328 H   0  0  0  1  0  0  0  0  0  0  0  0
   -1.2660    4.9598    2.7809 H   0  0  0  1  0  0  0  0  0  0  0  0
   -3.1129    3.3823   -0.6441 H   0  0  0  1  0  0  0  0  0  0  0  0
   -4.2637    5.4896   -0.9926 H   0  0  0  1  0  0  0  0  0  0  0  0
   -1.2842    2.5974    2.4220 H   0  0  0  1  0  0  0  0  0  0  0  0
   -1.9469    1.9161    0.9555 H   0  0  0  1  0  0  0  0  0  0  0  0
  1  4  1  0  0  0  0
  2  4  1  0  0  0  0
  2  5  2  0  0  0  0
  2  6  1  0  0  0  0
  3  4  1  0  0  0  0
  3  7  1  0  0  0  0
  3  8  1  0  0  0  0
  4 26  1  0  0  0  0
  6  9  1  0  0  0  0
  6 12  1  0  0  0  0
  8 10  1  0  0  0  0
  8 11  2  0  0  0  0
  9 13  1  0  0  0  0
  9 14  1  0  0  0  0
  9 15  1  0  0  0  0
 10 16  1  0  0  0  0
 10 17  1  0  0  0  0
 10 18  1  0  0  0  0
 19 20  1  0  0  0  0
 20 21  4  0  0  0  0
 20 25  4  0  0  0  0
 21 22  4  0  0  0  0
 21 27  1  0  0  0  0
 22 23  4  0  0  0  0
 22 28  1  0  0  0  0
 23 24  4  0  0  0  0
 23 26  1  0  0  0  0
 24 25  4  0  0  0  0
 24 29  1  0  0  0  0
 25 30  1  0  0  0  0
 26 31  1  0  0  0  0
 26 32  1  0  0  0  0
M  END
> <BCLConfClusterSize>
1

> <ConfClashScore>
0 

> <ConfOneFourInteractionScore>
-0.956443 

> <ConfScore>
-0.214289 

> <ConfScorePBest>
0.00678005 

> <ConfTolerance>
0.219086 

> <RosettaParamsInstructions>
M  ROOT 3
M  POLY_N_BB 3
M  POLY_CA_BB 4
M  POLY_C_BB 2
M  POLY_O_BB 5
M  POLY_IGNORE 9 10 11 12 13 14 15 16 17 18 
M  POLY_UPPER 6
M  POLY_LOWER 8
M  POLY_CHG 0
M  POLY_PROPERTIES ALPHA_AA L_AA PROTEIN AROMATIC POLYMER 
M  END

$$$$



 32 32  0  0  0  0  0  0  0  0999 V2000
   -3.1843    1.5692    1.1743 H   0  0  0  1  0  0  0  0  0  0  0  0
   -1.7322    0.2677    1.9546 C   0  0  0  1  0  0  0  0  0  0  0  0
   -2.9701    2.0158    3.1640 N   0  0  0  1  0  0  0  0  0  0  0  0
   -2.3868    1.6429    1.8839 C   0  0  0  1  0  0  0  0  0  0  0  0
   -1.2126   -0.2883    1.0042 O   0  0  0  1  0  0  0  0  0  0  0  0
   -1.7522   -0.3270    3.1484 N   0  0  0  1  0  0  0  0  0  0  0  0
   -2.4062    2.4650    3.8278 H   0  0  0  1  0  0  0  0  0  0  0  0
   -4.2477    1.7671    3.4657 C   0  0  0  1  0  0  0  0  0  0  0  0
   -1.3338   -1.6973    3.4037 C   0  0  0  1  0  0  0  0  0  0  0  0
   -4.7145    2.2051    4.8565 C   0  0  0  1  0  0  0  0  0  0  0  0
   -5.0630    1.2275    2.7360 O   0  0  0  1  0  0  0  0  0  0  0  0
   -2.0728    0.1984    3.9110 H   0  0  0  1  0  0  0  0  0  0  0  0
   -0.5228   -1.9502    2.7532 H   0  0  0  1  0  0  0  0  0  0  0  0
   -2.1546   -2.3598    3.2242 H   0  0  0  1  0  0  0  0  0  0  0  0
   -1.0164   -1.7893    4.4214 H   0  0  0  1  0  0  0  0  0  0  0  0
   -4.2200    3.1139    5.1294 H   0  0  0  1  0  0  0  0  0  0  0  0
   -4.4772    1.4425    5.5686 H   0  0  0  1  0  0  0  0  0  0  0  0
   -5.7724    2.3649    4.8434 H   0  0  0  1  0  0  0  0  0  0  0  0
   -4.3715    8.2506    0.3365 I   0  0  0  1  0  0  0  0  0  0  0  0
   -3.4412    6.4176    0.7143 C   0  0  0  1  0  0  0  0  0  0  0  0
   -2.5751    6.2711    1.7866 C   0  0  0  1  0  0  0  0  0  0  0  0
   -1.8965    5.0810    1.9694 C   0  0  0  1  0  0  0  0  0  0  0  0
   -2.0863    4.0320    1.0835 C   0  0  0  1  0  0  0  0  0  0  0  0
   -2.9499    4.1778    0.0142 C   0  0  0  1  0  0  0  0  0  0  0  0
   -3.6304    5.3715   -0.1690 C   0  0  0  1  0  0  0  0  0  0  0  0
   -1.4194    2.7032    1.3499 C   0  0  0  1  0  0  0  0  0  0  0  0
   -2.4358    7.0568    2.4535 H   0  0  0  1  0  0  0  0  0  0  0  0
   -1.2436    4.9726    2.7716 H   0  0  0  1  0  0  0  0  0  0  0  0
   -3.0891    3.3921   -0.6527 H   0  0  0  1  0  0  0  0  0  0  0  0
   -4.2833    5.4800   -0.9713 H   0  0  0  1  0  0  0  0  0  0  0  0
   -0.9939    2.3462    0.4354 H   0  0  0  1  0  0  0  0  0  0  0  0
   -0.6432    2.8503    2.0716 H   0  0  0  1  0  0  0  0  0  0  0  0
  1  4  1  0  0  0  0
  2  4  1  0  0  0  0
  2  5  2  0  0  0  0
  2  6  1  0  0  0  0
  3  4  1  0  0  0  0
  3  7  1  0  0  0  0
  3  8  1  0  0  0  0
  4 26  1  0  0  0  0
  6  9  1  0  0  0  0
  6 12  1  0  0  0  0
  8 10  1  0  0  0  0
  8 11  2  0  0  0  0
  9 13  1  0  0  0  0
  9 14  1  0  0  0  0
  9 15  1  0  0  0  0
 10 16  1  0  0  0  0
 10 17  1  0  0  0  0
 10 18  1  0  0  0  0
 19 20  1  0  0  0  0
 20 21  4  0  0  0  0
 20 25  4  0  0  0  0
 21 22  4  0  0  0  0
 21 27  1  0  0  0  0
 22 23  4  0  0  0  0
 22 28  1  0  0  0  0
 23 24  4  0  0  0  0
 23 26  1  0  0  0  0
 24 25  4  0  0  0  0
 24 29  1  0  0  0  0
 25 30  1  0  0  0  0
 26 31  1  0  0  0  0
 26 32  1  0  0  0  0
M  END
> <BCLConfClusterSize>
1

> <ConfClashScore>
0 

> <ConfOneFourInteractionScore>
-0.94165 

> <ConfScore>
-0.210721 

> <ConfScorePBest>
0.00675157 

> <ConfTolerance>
0.183038 

> <RosettaParamsInstructions>
M  ROOT 3
M  POLY_N_BB 3
M  POLY_CA_BB 4
M  POLY_C_BB 2
M  POLY_O_BB 5
M  POLY_IGNORE 9 10 11 12 13 14 15 16 17 18 
M  POLY_UPPER 6
M  POLY_LOWER 8
M  POLY_CHG 0
M  POLY_PROPERTIES ALPHA_AA L_AA PROTEIN AROMATIC POLYMER 
M  END

$$$$



 32 32  0  0  0  0  0  0  0  0999 V2000
   -3.1455    1.5642    1.6772 H   0  0  0  1  0  0  0  0  0  0  0  0
   -1.5050    0.2877    1.9830 C   0  0  0  1  0  0  0  0  0  0  0  0
   -2.3329    2.0540    3.5028 N   0  0  0  1  0  0  0  0  0  0  0  0
   -2.1728    1.6425    2.1161 C   0  0  0  1  0  0  0  0  0  0  0  0
   -1.4614   -0.2996    0.9021 O   0  0  0  1  0  0  0  0  0  0  0  0
   -0.9785   -0.2110    3.1020 N   0  0  0  1  0  0  0  0  0  0  0  0
   -1.6750    2.6526    3.9142 H   0  0  0  1  0  0  0  0  0  0  0  0
   -3.3748    1.6175    4.2161 C   0  0  0  1  0  0  0  0  0  0  0  0
   -0.2825   -1.4888    3.0759 C   0  0  0  1  0  0  0  0  0  0  0  0
   -3.5024    2.2227    5.6122 C   0  0  0  1  0  0  0  0  0  0  0  0
   -4.1466    0.7393    3.8330 O   0  0  0  1  0  0  0  0  0  0  0  0
   -1.0603    0.2841    3.9438 H   0  0  0  1  0  0  0  0  0  0  0  0
   -0.9795   -2.2707    2.8571 H   0  0  0  1  0  0  0  0  0  0  0  0
    0.1675   -1.6691    4.0297 H   0  0  0  1  0  0  0  0  0  0  0  0
    0.4760   -1.4661    2.3215 H   0  0  0  1  0  0  0  0  0  0  0  0
   -2.5990    2.0515    6.1596 H   0  0  0  1  0  0  0  0  0  0  0  0
   -4.3222    1.7651    6.1255 H   0  0  0  1  0  0  0  0  0  0  0  0
   -3.6752    3.2754    5.5300 H   0  0  0  1  0  0  0  0  0  0  0  0
   -4.4488    8.2256    0.4369 I   0  0  0  1  0  0  0  0  0  0  0  0
   -3.3967    6.4349    0.6711 C   0  0  0  1  0  0  0  0  0  0  0  0
   -2.5514    6.2854    1.7594 C   0  0  0  1  0  0  0  0  0  0  0  0
   -1.9095    5.0806    1.9758 C   0  0  0  1  0  0  0  0  0  0  0  0
   -2.1154    4.0201    1.1073 C   0  0  0  1  0  0  0  0  0  0  0  0
   -2.9583    4.1689    0.0221 C   0  0  0  1  0  0  0  0  0  0  0  0
   -3.6019    5.3773   -0.1948 C   0  0  0  1  0  0  0  0  0  0  0  0
   -1.4189    2.7013    1.3464 C   0  0  0  1  0  0  0  0  0  0  0  0
   -2.4000    7.0799    2.4132 H   0  0  0  1  0  0  0  0  0  0  0  0
   -1.2722    4.9698    2.7901 H   0  0  0  1  0  0  0  0  0  0  0  0
   -3.1096    3.3744   -0.6317 H   0  0  0  1  0  0  0  0  0  0  0  0
   -4.2393    5.4881   -1.0091 H   0  0  0  1  0  0  0  0  0  0  0  0
   -1.1760    2.2893    0.3892 H   0  0  0  1  0  0  0  0  0  0  0  0
   -0.5179    2.9082    1.8852 H   0  0  0  1  0  0  0  0  0  0  0  0
  1  4  1  0  0  0  0
  2  4  1  0  0  0  0
  2  5  2  0  0  0  0
  2  6  1  0  0  0  0
  3  4  1  0  0  0  0
  3  7  1  0  0  0  0
  3  8  1  0  0  0  0
  4 26  1  0  0  0  0
  6  9  1  0  0  0  0
  6 12  1  0  0  0  0
  8 10  1  0  0  0  0
  8 11  2  0  0  0  0
  9 13  1  0  0  0  0
  9 14  1  0  0  0  0
  9 15  1  0  0  0  0
 10 16  1  0  0  0  0
 10 17  1  0  0  0  0
 10 18  1  0  0  0  0
 19 20  1  0  0  0  0
 20 21  4  0  0  0  0
 20 25  4  0  0  0  0
 21 22  4  0  0  0  0
 21 27  1  0  0  0  0
 22 23  4  0  0  0  0
 22 28  1  0  0  0  0
 23 24  4  0  0  0  0
 23 26  1  0  0  0  0
 24 25  4  0  0  0  0
 24 29  1  0  0  0  0
 25 30  1  0  0  0  0
 26 31  1  0  0  0  0
 26 32  1  0  0  0  0
M  END
> <BCLConfClusterSize>
1

> <ConfClashScore>
0 

> <ConfOneFourInteractionScore>
-0.956443 

> <ConfScore>
-0.208281 

> <ConfScorePBest>
0.00672309 

> <ConfTolerance>
0.230338 

> <RosettaParamsInstructions>
M  ROOT 3
M  POLY_N_BB 3
M  POLY_CA_BB 4
M  POLY_C_BB 2
M  POLY_O_BB 5
M  POLY_IGNORE 9 10 11 12 13 14 15 16 17 18 
M  POLY_UPPER 6
M  POLY_LOWER 8
M  POLY_CHG 0
M  POLY_PROPERTIES ALPHA_AA L_AA PROTEIN AROMATIC POLYMER 
M  END

$$$$



 32 32  0  0  0  0  0  0  0  0999 V2000
    0.4307    3.3031    0.4560 H   0  0  0  1  0  0  0  0  0  0  0  0
    0.5675    1.2546    0.9367 C   0  0  0  1  0  0  0  0  0  0  0  0
   -0.6775    2.2784   -0.9535 N   0  0  0  1  0  0  0  0  0  0  0  0
   -0.2098    2.4470    0.4142 C   0  0  0  1  0  0  0  0  0  0  0  0
    0.0430    0.1594    1.0548 O   0  0  0  1  0  0  0  0  0  0  0  0
    1.8509    1.4884    1.2535 N   0  0  0  1  0  0  0  0  0  0  0  0
   -1.2639    1.5267   -1.1806 H   0  0  0  1  0  0  0  0  0  0  0  0
   -0.3090    3.1460   -1.9003 C   0  0  0  1  0  0  0  0  0  0  0  0
    2.7067    0.4654    1.8356 C   0  0  0  1  0  0  0  0  0  0  0  0
   -0.9485    2.9474   -3.2608 C   0  0  0  1  0  0  0  0  0  0  0  0
    0.4962    4.0544   -1.6998 O   0  0  0  1  0  0  0  0  0  0  0  0
    2.2244    2.3789    1.0869 H   0  0  0  1  0  0  0  0  0  0  0  0
    2.1183   -0.1878    2.4456 H   0  0  0  1  0  0  0  0  0  0  0  0
    3.4606    0.9305    2.4358 H   0  0  0  1  0  0  0  0  0  0  0  0
    3.1704   -0.0988    1.0536 H   0  0  0  1  0  0  0  0  0  0  0  0
   -0.6279    2.0136   -3.6732 H   0  0  0  1  0  0  0  0  0  0  0  0
   -0.6554    3.7441   -3.9121 H   0  0  0  1  0  0  0  0  0  0  0  0
   -2.0134    2.9444   -3.1570 H   0  0  0  1  0  0  0  0  0  0  0  0
   -4.4032    8.2433    0.3789 I   0  0  0  1  0  0  0  0  0  0  0  0
   -3.4175    6.4271    0.6918 C   0  0  0  1  0  0  0  0  0  0  0  0
   -2.5641    6.2783    1.7740 C   0  0  0  1  0  0  0  0  0  0  0  0
   -1.9084    5.0788    1.9774 C   0  0  0  1  0  0  0  0  0  0  0  0
   -2.1083    4.0227    1.1021 C   0  0  0  1  0  0  0  0  0  0  0  0
   -2.9591    4.1708    0.0229 C   0  0  0  1  0  0  0  0  0  0  0  0
   -3.6167    5.3740   -0.1809 C   0  0  0  1  0  0  0  0  0  0  0  0
   -1.3965    2.7096    1.3270 C   0  0  0  1  0  0  0  0  0  0  0  0
   -2.4173    7.0693    2.4330 H   0  0  0  1  0  0  0  0  0  0  0  0
   -1.2651    4.9685    2.7871 H   0  0  0  1  0  0  0  0  0  0  0  0
   -3.1058    3.3797   -0.6360 H   0  0  0  1  0  0  0  0  0  0  0  0
   -4.2600    5.4843   -0.9906 H   0  0  0  1  0  0  0  0  0  0  0  0
   -1.0455    2.6933    2.3376 H   0  0  0  1  0  0  0  0  0  0  0  0
   -2.1051    1.9210    1.1822 H   0  0  0  1  0  0  0  0  0  0  0  0
  1  4  1  0  0  0  0
  2  4  1  0  0  0  0
  2  5  2  0  0  0  0
  2  6  1  0  0  0  0
  3  4  1  0  0  0  0
  3  7  1  0  0  0  0
  3  8  1  0  0  0  0
  4 26  1  0  0  0  0
  6  9  1  0  0  0  0
  6 12  1  0  0  0  0
  8 10  1  0  0  0  0
  8 11  2  0  0  0  0
  9 13  1  0  0  0  0
  9 14  1  0  0  0  0
  9 15  1  0  0  0  0
 10 16  1  0  0  0  0
 10 17  1  0  0  0  0
 10 18  1  0  0  0  0
 19 20  1  0  0  0  0
 20 21  4  0  0  0  0
 20 25  4  0  0  0  0
 21 22  4  0  0  0  0
 21 27  1  0  0  0  0
 22 23  4  0  0  0  0
 22 28  1  0  0  0  0
 23 24  4  0  0  0  0
 23 26  1  0  0  0  0
 24 25  4  0  0  0  0
 24 29  1  0  0  0  0
 25 30  1  0  0  0  0
 26 31  1  0  0  0  0
 26 32  1  0  0  0  0
M  END
> <BCLConfClusterSize>
1

> <ConfClashScore>
0 

> <ConfOneFourInteractionScore>
-0.967579 

> <ConfScore>
-0.20794 

> <ConfScorePBest>
0.0066946 

> <ConfTolerance>
0.217635 

> <RosettaParamsInstructions>
M  ROOT 3
M  POLY_N_BB 3
M  POLY_CA_BB 4
M  POLY_C_BB 2
M  POLY_O_BB 5
M  POLY_IGNORE 9 10 11 12 13 14 15 16 17 18 
M  POLY_UPPER 6
M  POLY_LOWER 8
M  POLY_CHG 0
M  POLY_PROPERTIES ALPHA_AA L_AA PROTEIN AROMATIC POLYMER 
M  END

$$$$



 32 32  0  0  0  0  0  0  0  0999 V2000
    0.4277    3.7089    1.1550 H   0  0  0  1  0  0  0  0  0  0  0  0
    0.9255    1.6966    1.4212 C   0  0  0  1  0  0  0  0  0  0  0  0
    0.1184    2.7997   -0.6417 N   0  0  0  1  0  0  0  0  0  0  0  0
    0.0346    2.7755    0.8097 C   0  0  0  1  0  0  0  0  0  0  0  0
    1.3143    0.7431    0.7480 O   0  0  0  1  0  0  0  0  0  0  0  0
    1.2706    1.8203    2.7126 N   0  0  0  1  0  0  0  0  0  0  0  0
   -0.4228    2.1659   -1.1573 H   0  0  0  1  0  0  0  0  0  0  0  0
    0.9152    3.6642   -1.3034 C   0  0  0  1  0  0  0  0  0  0  0  0
    2.0333    0.7990    3.4147 C   0  0  0  1  0  0  0  0  0  0  0  0
    0.7776    3.7498   -2.8110 C   0  0  0  1  0  0  0  0  0  0  0  0
    1.7303    4.3637   -0.7035 O   0  0  0  1  0  0  0  0  0  0  0  0
    0.9994    2.6264    3.1995 H   0  0  0  1  0  0  0  0  0  0  0  0
    1.5192   -0.1373    3.3515 H   0  0  0  1  0  0  0  0  0  0  0  0
    2.1411    1.0778    4.4421 H   0  0  0  1  0  0  0  0  0  0  0  0
    3.0005    0.7055    2.9666 H   0  0  0  1  0  0  0  0  0  0  0  0
    1.5187    4.4163   -3.2000 H   0  0  0  1  0  0  0  0  0  0  0  0
   -0.1966    4.1156   -3.0598 H   0  0  0  1  0  0  0  0  0  0  0  0
    0.9137    2.7777   -3.2370 H   0  0  0  1  0  0  0  0  0  0  0  0
   -4.4032    8.2433    0.3789 I   0  0  0  1  0  0  0  0  0  0  0  0
   -3.4175    6.4271    0.6918 C   0  0  0  1  0  0  0  0  0  0  0  0
   -2.5641    6.2783    1.7740 C   0  0  0  1  0  0  0  0  0  0  0  0
   -1.9084    5.0788    1.9774 C   0  0  0  1  0  0  0  0  0  0  0  0
   -2.1083    4.0227    1.1021 C   0  0  0  1  0  0  0  0  0  0  0  0
   -2.9591    4.1708    0.0229 C   0  0  0  1  0  0  0  0  0  0  0  0
   -3.6167    5.3740   -0.1809 C   0  0  0  1  0  0  0  0  0  0  0  0
   -1.3965    2.7096    1.3270 C   0  0  0  1  0  0  0  0  0  0  0  0
   -2.4173    7.0693    2.4330 H   0  0  0  1  0  0  0  0  0  0  0  0
   -1.2651    4.9685    2.7871 H   0  0  0  1  0  0  0  0  0  0  0  0
   -3.1058    3.3797   -0.6360 H   0  0  0  1  0  0  0  0  0  0  0  0
   -4.2600    5.4843   -0.9906 H   0  0  0  1  0  0  0  0  0  0  0  0
   -1.3812    2.4938    2.3749 H   0  0  0  1  0  0  0  0  0  0  0  0
   -1.9209    1.9332    0.8101 H   0  0  0  1  0  0  0  0  0  0  0  0
  1  4  1  0  0  0  0
  2  4  1  0  0  0  0
  2  5  2  0  0  0  0
  2  6  1  0  0  0  0
  3  4  1  0  0  0  0
  3  7  1  0  0  0  0
  3  8  1  0  0  0  0
  4 26  1  0  0  0  0
  6  9  1  0  0  0  0
  6 12  1  0  0  0  0
  8 10  1  0  0  0  0
  8 11  2  0  0  0  0
  9 13  1  0  0  0  0
  9 14  1  0  0  0  0
  9 15  1  0  0  0  0
 10 16  1  0  0  0  0
 10 17  1  0  0  0  0
 10 18  1  0  0  0  0
 19 20  1  0  0  0  0
 20 21  4  0  0  0  0
 20 25  4  0  0  0  0
 21 22  4  0  0  0  0
 21 27  1  0  0  0  0
 22 23  4  0  0  0  0
 22 28  1  0  0  0  0
 23 24  4  0  0  0  0
 23 26  1  0  0  0  0
 24 25  4  0  0  0  0
 24 29  1  0  0  0  0
 25 30  1  0  0  0  0
 26 31  1  0  0  0  0
 26 32  1  0  0  0  0
M  END
> <BCLConfClusterSize>
1

> <ConfClashScore>
0 

> <ConfOneFourInteractionScore>
-0.985807 

> <ConfScore>
-0.205806 

> <ConfScorePBest>
0.00666612 

> <ConfTolerance>
0.269053 

> <RosettaParamsInstructions>
M  ROOT 3
M  POLY_N_BB 3
M  POLY_CA_BB 4
M  POLY_C_BB 2
M  POLY_O_BB 5
M  POLY_IGNORE 9 10 11 12 13 14 15 16 17 18 
M  POLY_UPPER 6
M  POLY_LOWER 8
M  POLY_CHG 0
M  POLY_PROPERTIES ALPHA_AA L_AA PROTEIN AROMATIC POLYMER 
M  END

$$$$



 32 32  0  0  0  0  0  0  0  0999 V2000
   -2.7246    1.3752    0.3907 H   0  0  0  1  0  0  0  0  0  0  0  0
   -1.4468    0.2270    1.6294 C   0  0  0  1  0  0  0  0  0  0  0  0
   -3.3296    1.6073    2.3542 N   0  0  0  1  0  0  0  0  0  0  0  0
   -2.2773    1.4778    1.3573 C   0  0  0  1  0  0  0  0  0  0  0  0
   -0.9289   -0.3993    0.7063 O   0  0  0  1  0  0  0  0  0  0  0  0
   -1.2986   -0.1697    2.9104 N   0  0  0  1  0  0  0  0  0  0  0  0
   -3.3088    2.3715    2.9674 H   0  0  0  1  0  0  0  0  0  0  0  0
   -4.3329    0.7119    2.4636 C   0  0  0  1  0  0  0  0  0  0  0  0
   -0.3845   -1.2535    3.2385 C   0  0  0  1  0  0  0  0  0  0  0  0
   -5.4320    0.9991    3.4476 C   0  0  0  1  0  0  0  0  0  0  0  0
   -4.3499   -0.3103    1.7792 O   0  0  0  1  0  0  0  0  0  0  0  0
   -1.8075    0.2729    3.6213 H   0  0  0  1  0  0  0  0  0  0  0  0
    0.3944   -0.8842    3.8725 H   0  0  0  1  0  0  0  0  0  0  0  0
    0.0433   -1.6437    2.3387 H   0  0  0  1  0  0  0  0  0  0  0  0
   -0.9190   -2.0294    3.7456 H   0  0  0  1  0  0  0  0  0  0  0  0
   -5.0512    0.9124    4.4438 H   0  0  0  1  0  0  0  0  0  0  0  0
   -6.2278    0.2975    3.3079 H   0  0  0  1  0  0  0  0  0  0  0  0
   -5.7996    1.9918    3.2917 H   0  0  0  1  0  0  0  0  0  0  0  0
   -4.3544    8.2804    0.4670 I   0  0  0  1  0  0  0  0  0  0  0  0
   -3.4287    6.4178    0.6712 C   0  0  0  1  0  0  0  0  0  0  0  0
   -2.5779    6.2812    1.7570 C   0  0  0  1  0  0  0  0  0  0  0  0
   -1.9165    5.0867    1.9710 C   0  0  0  1  0  0  0  0  0  0  0  0
   -2.1081    4.0233    1.1026 C   0  0  0  1  0  0  0  0  0  0  0  0
   -2.9564    4.1592    0.0199 C   0  0  0  1  0  0  0  0  0  0  0  0
   -3.6197    5.3574   -0.1946 C   0  0  0  1  0  0  0  0  0  0  0  0
   -1.3901    2.7156    1.3391 C   0  0  0  1  0  0  0  0  0  0  0  0
   -2.4373    7.0778    2.4107 H   0  0  0  1  0  0  0  0  0  0  0  0
   -1.2751    4.9856    2.7834 H   0  0  0  1  0  0  0  0  0  0  0  0
   -3.0970    3.3627   -0.6338 H   0  0  0  1  0  0  0  0  0  0  0  0
   -4.2610    5.4585   -1.0070 H   0  0  0  1  0  0  0  0  0  0  0  0
   -0.6659    2.5913    0.5613 H   0  0  0  1  0  0  0  0  0  0  0  0
   -0.8921    2.7787    2.2841 H   0  0  0  1  0  0  0  0  0  0  0  0
  1  4  1  0  0  0  0
  2  4  1  0  0  0  0
  2  5  2  0  0  0  0
  2  6  1  0  0  0  0
  3  4  1  0  0  0  0
  3  7  1  0  0  0  0
  3  8  1  0  0  0  0
  4 26  1  0  0  0  0
  6  9  1  0  0  0  0
  6 12  1  0  0  0  0
  8 10  1  0  0  0  0
  8 11  2  0  0  0  0
  9 13  1  0  0  0  0
  9 14  1  0  0  0  0
  9 15  1  0  0  0  0
 10 16  1  0  0  0  0
 10 17  1  0  0  0  0
 10 18  1  0  0  0  0
 19 20  1  0  0  0  0
 20 21  4  0  0  0  0
 20 25  4  0  0  0  0
 21 22  4  0  0  0  0
 21 27  1  0  0  0  0
 22 23  4  0  0  0  0
 22 28  1  0  0  0  0
 23 24  4  0  0  0  0
 23 26  1  0  0  0  0
 24 25  4  0  0  0  0
 24 29  1  0  0  0  0
 25 30  1  0  0  0  0
 26 31  1  0  0  0  0
 26 32  1  0  0  0  0
M  END
> <BCLConfClusterSize>
1

> <ConfClashScore>
0 

> <ConfOneFourInteractionScore>
-0.960318 

> <ConfScore>
-0.203476 

> <ConfScorePBest>
0.00663764 

> <ConfTolerance>
0.255417 

> <RosettaParamsInstructions>
M  ROOT 3
M  POLY_N_BB 3
M  POLY_CA_BB 4
M  POLY_C_BB 2
M  POLY_O_BB 5
M  POLY_IGNORE 9 10 11 12 13 14 15 16 17 18 
M  POLY_UPPER 6
M  POLY_LOWER 8
M  POLY_CHG 0
M  POLY_PROPERTIES ALPHA_AA L_AA PROTEIN AROMATIC POLYMER 
M  END

$$$$



 32 32  0  0  0  0  0  0  0  0999 V2000
   -3.0472    1.4093    1.4066 H   0  0  0  1  0  0  0  0  0  0  0  0
   -1.3186    0.3468    1.9862 C   0  0  0  1  0  0  0  0  0  0  0  0
   -2.5807    1.9232    3.3534 N   0  0  0  1  0  0  0  0  0  0  0  0
   -2.1734    1.5992    1.9943 C   0  0  0  1  0  0  0  0  0  0  0  0
   -0.4308    0.1733    2.8048 O   0  0  0  1  0  0  0  0  0  0  0  0
   -1.6382   -0.5183    1.0107 N   0  0  0  1  0  0  0  0  0  0  0  0
   -1.9867    2.4718    3.9070 H   0  0  0  1  0  0  0  0  0  0  0  0
   -3.7460    1.4951    3.8768 C   0  0  0  1  0  0  0  0  0  0  0  0
   -0.9066   -1.7391    0.7071 C   0  0  0  1  0  0  0  0  0  0  0  0
   -3.9927    1.9795    5.2924 C   0  0  0  1  0  0  0  0  0  0  0  0
   -4.5492    0.7846    3.2950 O   0  0  0  1  0  0  0  0  0  0  0  0
   -2.4234   -0.3122    0.4618 H   0  0  0  1  0  0  0  0  0  0  0  0
    0.1261   -1.5070    0.5504 H   0  0  0  1  0  0  0  0  0  0  0  0
   -1.3098   -2.1856   -0.1777 H   0  0  0  1  0  0  0  0  0  0  0  0
   -0.9981   -2.4223    1.5255 H   0  0  0  1  0  0  0  0  0  0  0  0
   -3.8182    3.0339    5.3446 H   0  0  0  1  0  0  0  0  0  0  0  0
   -3.3287    1.4747    5.9626 H   0  0  0  1  0  0  0  0  0  0  0  0
   -5.0053    1.7717    5.5688 H   0  0  0  1  0  0  0  0  0  0  0  0
   -4.4032    8.2433    0.3789 I   0  0  0  1  0  0  0  0  0  0  0  0
   -3.4175    6.4271    0.6918 C   0  0  0  1  0  0  0  0  0  0  0  0
   -2.5641    6.2783    1.7740 C   0  0  0  1  0  0  0  0  0  0  0  0
   -1.9084    5.0788    1.9774 C   0  0  0  1  0  0  0  0  0  0  0  0
   -2.1083    4.0227    1.1021 C   0  0  0  1  0  0  0  0  0  0  0  0
   -2.9591    4.1708    0.0229 C   0  0  0  1  0  0  0  0  0  0  0  0
   -3.6167    5.3740   -0.1809 C   0  0  0  1  0  0  0  0  0  0  0  0
   -1.3965    2.7096    1.3270 C   0  0  0  1  0  0  0  0  0  0  0  0
   -2.4173    7.0693    2.4330 H   0  0  0  1  0  0  0  0  0  0  0  0
   -1.2651    4.9685    2.7871 H   0  0  0  1  0  0  0  0  0  0  0  0
   -3.1058    3.3797   -0.6360 H   0  0  0  1  0  0  0  0  0  0  0  0
   -4.2600    5.4843   -0.9906 H   0  0  0  1  0  0  0  0  0  0  0  0
   -1.0801    2.3490    0.3705 H   0  0  0  1  0  0  0  0  0  0  0  0
   -0.5389    2.9103    1.9346 H   0  0  0  1  0  0  0  0  0  0  0  0
  1  4  1  0  0  0  0
  2  4  1  0  0  0  0
  2  5  2  0  0  0  0
  2  6  1  0  0  0  0
  3  4  1  0  0  0  0
  3  7  1  0  0  0  0
  3  8  1  0  0  0  0
  4 26  1  0  0  0  0
  6  9  1  0  0  0  0
  6 12  1  0  0  0  0
  8 10  1  0  0  0  0
  8 11  2  0  0  0  0
  9 13  1  0  0  0  0
  9 14  1  0  0  0  0
  9 15  1  0  0  0  0
 10 16  1  0  0  0  0
 10 17  1  0  0  0  0
 10 18  1  0  0  0  0
 19 20  1  0  0  0  0
 20 21  4  0  0  0  0
 20 25  4  0  0  0  0
 21 22  4  0  0  0  0
 21 27  1  0  0  0  0
 22 23  4  0  0  0  0
 22 28  1  0  0  0  0
 23 24  4  0  0  0  0
 23 26  1  0  0  0  0
 24 25  4  0  0  0  0
 24 29  1  0  0  0  0
 25 30  1  0  0  0  0
 26 31  1  0  0  0  0
 26 32  1  0  0  0  0
M  END
> <BCLConfClusterSize>
1

> <ConfClashScore>
0 

> <ConfOneFourInteractionScore>
-0.985807 

> <ConfScore>
-0.202348 

> <ConfScorePBest>
0.00660916 

> <ConfTolerance>
0.186944 

> <RosettaParamsInstructions>
M  ROOT 3
M  POLY_N_BB 3
M  POLY_CA_BB 4
M  POLY_C_BB 2
M  POLY_O_BB 5
M  POLY_IGNORE 9 10 11 12 13 14 15 16 17 18 
M  POLY_UPPER 6
M  POLY_LOWER 8
M  POLY_CHG 0
M  POLY_PROPERTIES ALPHA_AA L_AA PROTEIN AROMATIC POLYMER 
M  END

$$$$



 32 32  0  0  0  0  0  0  0  0999 V2000
    0.5243    3.4465    0.9673 H   0  0  0  1  0  0  0  0  0  0  0  0
    0.6231    1.3402    0.8778 C   0  0  0  1  0  0  0  0  0  0  0  0
   -0.2885    2.8223   -0.8280 N   0  0  0  1  0  0  0  0  0  0  0  0
   -0.0903    2.6498    0.6034 C   0  0  0  1  0  0  0  0  0  0  0  0
    0.9365    1.0204    2.0237 O   0  0  0  1  0  0  0  0  0  0  0  0
    0.9014    0.5426   -0.1655 N   0  0  0  1  0  0  0  0  0  0  0  0
   -1.0300    2.3518   -1.2629 H   0  0  0  1  0  0  0  0  0  0  0  0
    0.5087    3.6032   -1.5729 C   0  0  0  1  0  0  0  0  0  0  0  0
    1.7506   -0.6379   -0.1084 C   0  0  0  1  0  0  0  0  0  0  0  0
    0.1061    3.8708   -2.9959 C   0  0  0  1  0  0  0  0  0  0  0  0
    1.5395    4.0872   -1.1071 O   0  0  0  1  0  0  0  0  0  0  0  0
    0.5028    0.7725   -1.0307 H   0  0  0  1  0  0  0  0  0  0  0  0
    2.1454   -0.7464    0.8802 H   0  0  0  1  0  0  0  0  0  0  0  0
    2.5563   -0.5314   -0.8043 H   0  0  0  1  0  0  0  0  0  0  0  0
    1.1743   -1.5040   -0.3590 H   0  0  0  1  0  0  0  0  0  0  0  0
    0.1287    2.9566   -3.5514 H   0  0  0  1  0  0  0  0  0  0  0  0
    0.7871    4.5706   -3.4335 H   0  0  0  1  0  0  0  0  0  0  0  0
   -0.8841    4.2757   -3.0160 H   0  0  0  1  0  0  0  0  0  0  0  0
   -4.4488    8.2256    0.4369 I   0  0  0  1  0  0  0  0  0  0  0  0
   -3.3967    6.4349    0.6711 C   0  0  0  1  0  0  0  0  0  0  0  0
   -2.5514    6.2854    1.7594 C   0  0  0  1  0  0  0  0  0  0  0  0
   -1.9095    5.0806    1.9758 C   0  0  0  1  0  0  0  0  0  0  0  0
   -2.1154    4.0201    1.1073 C   0  0  0  1  0  0  0  0  0  0  0  0
   -2.9583    4.1689    0.0221 C   0  0  0  1  0  0  0  0  0  0  0  0
   -3.6019    5.3773   -0.1948 C   0  0  0  1  0  0  0  0  0  0  0  0
   -1.4189    2.7013    1.3464 C   0  0  0  1  0  0  0  0  0  0  0  0
   -2.4000    7.0799    2.4132 H   0  0  0  1  0  0  0  0  0  0  0  0
   -1.2722    4.9698    2.7901 H   0  0  0  1  0  0  0  0  0  0  0  0
   -3.1096    3.3744   -0.6317 H   0  0  0  1  0  0  0  0  0  0  0  0
   -4.2393    5.4881   -1.0091 H   0  0  0  1  0  0  0  0  0  0  0  0
   -1.2393    2.5844    2.3947 H   0  0  0  1  0  0  0  0  0  0  0  0
   -2.0454    1.9059    1.0004 H   0  0  0  1  0  0  0  0  0  0  0  0
  1  4  1  0  0  0  0
  2  4  1  0  0  0  0
  2  5  2  0  0  0  0
  2  6  1  0  0  0  0
  3  4  1  0  0  0  0
  3  7  1  0  0  0  0
  3  8  1  0  0  0  0
  4 26  1  0  0  0  0
  6  9  1  0  0  0  0
  6 12  1  0  0  0  0
  8 10  1  0  0  0  0
  8 11  2  0  0  0  0
  9 13  1  0  0  0  0
  9 14  1  0  0  0  0
  9 15  1  0  0  0  0
 10 16  1  0  0  0  0
 10 17  1  0  0  0  0
 10 18  1  0  0  0  0
 19 20  1  0  0  0  0
 20 21  4  0  0  0  0
 20 25  4  0  0  0  0
 21 22  4  0  0  0  0
 21 27  1  0  0  0  0
 22 23  4  0  0  0  0
 22 28  1  0  0  0  0
 23 24  4  0  0  0  0
 23 26  1  0  0  0  0
 24 25  4  0  0  0  0
 24 29  1  0  0  0  0
 25 30  1  0  0  0  0
 26 31  1  0  0  0  0
 26 32  1  0  0  0  0
M  END
> <BCLConfClusterSize>
1

> <ConfClashScore>
0 

> <ConfOneFourInteractionScore>
-0.94165 

> <ConfScore>
-0.199354 

> <ConfScorePBest>
0.00658068 

> <ConfTolerance>
0.215184 

> <RosettaParamsInstructions>
M  ROOT 3
M  POLY_N_BB 3
M  POLY_CA_BB 4
M  POLY_C_BB 2
M  POLY_O_BB 5
M  POLY_IGNORE 9 10 11 12 13 14 15 16 17 18 
M  POLY_UPPER 6
M  POLY_LOWER 8
M  POLY_CHG 0
M  POLY_PROPERTIES ALPHA_AA L_AA PROTEIN AROMATIC POLYMER 
M  END

$$$$



 32 32  0  0  0  0  0  0  0  0999 V2000
    0.6116    3.2984    1.6956 H   0  0  0  1  0  0  0  0  0  0  0  0
    0.6803    1.2780    1.1143 C   0  0  0  1  0  0  0  0  0  0  0  0
    0.3217    3.1732   -0.3392 N   0  0  0  1  0  0  0  0  0  0  0  0
    0.0890    2.6700    1.0051 C   0  0  0  1  0  0  0  0  0  0  0  0
    0.3891    0.4031    0.2999 O   0  0  0  1  0  0  0  0  0  0  0  0
    1.5291    1.0304    2.1244 N   0  0  0  1  0  0  0  0  0  0  0  0
   -0.0690    2.7098   -1.1092 H   0  0  0  1  0  0  0  0  0  0  0  0
    1.0744    4.2768   -0.5285 C   0  0  0  1  0  0  0  0  0  0  0  0
    2.1849   -0.2647    2.2269 C   0  0  0  1  0  0  0  0  0  0  0  0
    1.4104    4.6057   -1.9701 C   0  0  0  1  0  0  0  0  0  0  0  0
    1.4720    4.9833    0.3969 O   0  0  0  1  0  0  0  0  0  0  0  0
    1.7075    1.7232    2.7942 H   0  0  0  1  0  0  0  0  0  0  0  0
    2.7189   -0.4672    1.3221 H   0  0  0  1  0  0  0  0  0  0  0  0
    1.4491   -1.0254    2.3844 H   0  0  0  1  0  0  0  0  0  0  0  0
    2.8690   -0.2537    3.0496 H   0  0  0  1  0  0  0  0  0  0  0  0
    0.5160    4.5916   -2.5574 H   0  0  0  1  0  0  0  0  0  0  0  0
    2.0980    3.8794   -2.3505 H   0  0  0  1  0  0  0  0  0  0  0  0
    1.8541    5.5780   -2.0198 H   0  0  0  1  0  0  0  0  0  0  0  0
   -4.4007    8.2454    0.3836 I   0  0  0  1  0  0  0  0  0  0  0  0
   -3.4178    6.4267    0.6912 C   0  0  0  1  0  0  0  0  0  0  0  0
   -2.5636    6.2739    1.7722 C   0  0  0  1  0  0  0  0  0  0  0  0
   -1.9097    5.0728    1.9721 C   0  0  0  1  0  0  0  0  0  0  0  0
   -2.1123    4.0191    1.0945 C   0  0  0  1  0  0  0  0  0  0  0  0
   -2.9639    4.1713    0.0166 C   0  0  0  1  0  0  0  0  0  0  0  0
   -3.6196    5.3760   -0.1838 C   0  0  0  1  0  0  0  0  0  0  0  0
   -1.3776    2.7270    1.3628 C   0  0  0  1  0  0  0  0  0  0  0  0
   -2.4148    7.0632    2.4329 H   0  0  0  1  0  0  0  0  0  0  0  0
   -1.2658    4.9596    2.7809 H   0  0  0  1  0  0  0  0  0  0  0  0
   -3.1127    3.3820   -0.6441 H   0  0  0  1  0  0  0  0  0  0  0  0
   -4.2635    5.4893   -0.9926 H   0  0  0  1  0  0  0  0  0  0  0  0
   -1.4598    2.5234    2.4100 H   0  0  0  1  0  0  0  0  0  0  0  0
   -1.8723    1.9565    0.8092 H   0  0  0  1  0  0  0  0  0  0  0  0
  1  4  1  0  0  0  0
  2  4  1  0  0  0  0
  2  5  2  0  0  0  0
  2  6  1  0  0  0  0
  3  4  1  0  0  0  0
  3  7  1  0  0  0  0
  3  8  1  0  0  0  0
  4 26  1  0  0  0  0
  6  9  1  0  0  0  0
  6 12  1  0  0  0  0
  8 10  1  0  0  0  0
  8 11  2  0  0  0  0
  9 13  1  0  0  0  0
  9 14  1  0  0  0  0
  9 15  1  0  0  0  0
 10 16  1  0  0  0  0
 10 17  1  0  0  0  0
 10 18  1  0  0  0  0
 19 20  1  0  0  0  0
 20 21  4  0  0  0  0
 20 25  4  0  0  0  0
 21 22  4  0  0  0  0
 21 27  1  0  0  0  0
 22 23  4  0  0  0  0
 22 28  1  0  0  0  0
 23 24  4  0  0  0  0
 23 26  1  0  0  0  0
 24 25  4  0  0  0  0
 24 29  1  0  0  0  0
 25 30  1  0  0  0  0
 26 31  1  0  0  0  0
 26 32  1  0  0  0  0
M  END
> <BCLConfClusterSize>
1

> <ConfClashScore>
0 

> <ConfOneFourInteractionScore>
-0.990503 

> <ConfScore>
-0.198591 

> <ConfScorePBest>
0.0065522 

> <ConfTolerance>
0.253416 

> <RosettaParamsInstructions>
M  ROOT 3
M  POLY_N_BB 3
M  POLY_CA_BB 4
M  POLY_C_BB 2
M  POLY_O_BB 5
M  POLY_IGNORE 9 10 11 12 13 14 15 16 17 18 
M  POLY_UPPER 6
M  POLY_LOWER 8
M  POLY_CHG 0
M  POLY_PROPERTIES ALPHA_AA L_AA PROTEIN AROMATIC POLYMER 
M  END

$$$$



 32 32  0  0  0  0  0  0  0  0999 V2000
   -2.9359    1.2822    1.0083 H   0  0  0  1  0  0  0  0  0  0  0  0
   -1.5082    0.4200    2.3275 C   0  0  0  1  0  0  0  0  0  0  0  0
   -3.1623    2.0635    2.9196 N   0  0  0  1  0  0  0  0  0  0  0  0
   -2.3222    1.6064    1.8227 C   0  0  0  1  0  0  0  0  0  0  0  0
   -0.9381   -0.3394    1.5486 O   0  0  0  1  0  0  0  0  0  0  0  0
   -1.4617    0.2705    3.6543 N   0  0  0  1  0  0  0  0  0  0  0  0
   -3.1048    3.0005    3.2007 H   0  0  0  1  0  0  0  0  0  0  0  0
   -4.0093    1.2500    3.5568 C   0  0  0  1  0  0  0  0  0  0  0  0
   -0.8474   -0.8882    4.2850 C   0  0  0  1  0  0  0  0  0  0  0  0
   -4.8918    1.9051    4.6014 C   0  0  0  1  0  0  0  0  0  0  0  0
   -4.0828    0.0441    3.3243 O   0  0  0  1  0  0  0  0  0  0  0  0
   -1.8551    0.9653    4.2227 H   0  0  0  1  0  0  0  0  0  0  0  0
    0.2156   -0.8324    4.1763 H   0  0  0  1  0  0  0  0  0  0  0  0
   -1.2070   -1.7810    3.8175 H   0  0  0  1  0  0  0  0  0  0  0  0
   -1.0990   -0.9033    5.3249 H   0  0  0  1  0  0  0  0  0  0  0  0
   -5.2507    1.1621    5.2826 H   0  0  0  1  0  0  0  0  0  0  0  0
   -5.7221    2.3786    4.1204 H   0  0  0  1  0  0  0  0  0  0  0  0
   -4.3252    2.6370    5.1384 H   0  0  0  1  0  0  0  0  0  0  0  0
   -4.4032    8.2433    0.3789 I   0  0  0  1  0  0  0  0  0  0  0  0
   -3.4175    6.4271    0.6918 C   0  0  0  1  0  0  0  0  0  0  0  0
   -2.5641    6.2783    1.7740 C   0  0  0  1  0  0  0  0  0  0  0  0
   -1.9084    5.0788    1.9774 C   0  0  0  1  0  0  0  0  0  0  0  0
   -2.1083    4.0227    1.1021 C   0  0  0  1  0  0  0  0  0  0  0  0
   -2.9591    4.1708    0.0229 C   0  0  0  1  0  0  0  0  0  0  0  0
   -3.6167    5.3740   -0.1809 C   0  0  0  1  0  0  0  0  0  0  0  0
   -1.3965    2.7096    1.3270 C   0  0  0  1  0  0  0  0  0  0  0  0
   -2.4173    7.0693    2.4330 H   0  0  0  1  0  0  0  0  0  0  0  0
   -1.2651    4.9685    2.7871 H   0  0  0  1  0  0  0  0  0  0  0  0
   -3.1058    3.3797   -0.6360 H   0  0  0  1  0  0  0  0  0  0  0  0
   -4.2600    5.4843   -0.9906 H   0  0  0  1  0  0  0  0  0  0  0  0
   -0.9586    2.3968    0.4021 H   0  0  0  1  0  0  0  0  0  0  0  0
   -0.6261    2.8600    2.0541 H   0  0  0  1  0  0  0  0  0  0  0  0
  1  4  1  0  0  0  0
  2  4  1  0  0  0  0
  2  5  2  0  0  0  0
  2  6  1  0  0  0  0
  3  4  1  0  0  0  0
  3  7  1  0  0  0  0
  3  8  1  0  0  0  0
  4 26  1  0  0  0  0
  6  9  1  0  0  0  0
  6 12  1  0  0  0  0
  8 10  1  0  0  0  0
  8 11  2  0  0  0  0
  9 13  1  0  0  0  0
  9 14  1  0  0  0  0
  9 15  1  0  0  0  0
 10 16  1  0  0  0  0
 10 17  1  0  0  0  0
 10 18  1  0  0  0  0
 19 20  1  0  0  0  0
 20 21  4  0  0  0  0
 20 25  4  0  0  0  0
 21 22  4  0  0  0  0
 21 27  1  0  0  0  0
 22 23  4  0  0  0  0
 22 28  1  0  0  0  0
 23 24  4  0  0  0  0
 23 26  1  0  0  0  0
 24 25  4  0  0  0  0
 24 29  1  0  0  0  0
 25 30  1  0  0  0  0
 26 31  1  0  0  0  0
 26 32  1  0  0  0  0
M  END
> <BCLConfClusterSize>
1

> <ConfClashScore>
0.000382658 

> <ConfOneFourInteractionScore>
-0.94165 

> <ConfScore>
-0.197813 

> <ConfScorePBest>
0.00652372 

> <ConfTolerance>
0.356461 

> <RosettaParamsInstructions>
M  ROOT 3
M  POLY_N_BB 3
M  POLY_CA_BB 4
M  POLY_C_BB 2
M  POLY_O_BB 5
M  POLY_IGNORE 9 10 11 12 13 14 15 16 17 18 
M  POLY_UPPER 6
M  POLY_LOWER 8
M  POLY_CHG 0
M  POLY_PROPERTIES ALPHA_AA L_AA PROTEIN AROMATIC POLYMER 
M  END

$$$$



 32 32  0  0  0  0  0  0  0  0999 V2000
   -2.5466    2.1449    2.9950 H   0  0  0  1  0  0  0  0  0  0  0  0
   -3.3788    1.2174    1.3226 C   0  0  0  1  0  0  0  0  0  0  0  0
   -1.4352    0.4856    2.5138 N   0  0  0  1  0  0  0  0  0  0  0  0
   -2.1788    1.6695    2.1097 C   0  0  0  1  0  0  0  0  0  0  0  0
   -4.3721    1.9149    1.1218 O   0  0  0  1  0  0  0  0  0  0  0  0
   -3.3186   -0.0635    0.8137 N   0  0  0  1  0  0  0  0  0  0  0  0
   -0.5232    0.3621    2.1771 H   0  0  0  1  0  0  0  0  0  0  0  0
   -1.9526   -0.4388    3.3280 C   0  0  0  1  0  0  0  0  0  0  0  0
   -4.3794   -0.6231   -0.0106 C   0  0  0  1  0  0  0  0  0  0  0  0
   -1.0952   -1.6680    3.5582 C   0  0  0  1  0  0  0  0  0  0  0  0
   -3.0527   -0.3179    3.8655 O   0  0  0  1  0  0  0  0  0  0  0  0
   -2.5343   -0.6158    1.0143 H   0  0  0  1  0  0  0  0  0  0  0  0
   -5.2960   -0.6274    0.5413 H   0  0  0  1  0  0  0  0  0  0  0  0
   -4.1250   -1.6250   -0.2870 H   0  0  0  1  0  0  0  0  0  0  0  0
   -4.4970   -0.0284   -0.8923 H   0  0  0  1  0  0  0  0  0  0  0  0
   -1.6735   -2.4191    4.0546 H   0  0  0  1  0  0  0  0  0  0  0  0
   -0.2537   -1.4070    4.1655 H   0  0  0  1  0  0  0  0  0  0  0  0
   -0.7532   -2.0454    2.6172 H   0  0  0  1  0  0  0  0  0  0  0  0
   -4.3544    8.2804    0.4670 I   0  0  0  1  0  0  0  0  0  0  0  0
   -3.4287    6.4178    0.6712 C   0  0  0  1  0  0  0  0  0  0  0  0
   -2.5779    6.2812    1.7570 C   0  0  0  1  0  0  0  0  0  0  0  0
   -1.9165    5.0867    1.9710 C   0  0  0  1  0  0  0  0  0  0  0  0
   -2.1081    4.0233    1.1026 C   0  0  0  1  0  0  0  0  0  0  0  0
   -2.9564    4.1592    0.0199 C   0  0  0  1  0  0  0  0  0  0  0  0
   -3.6197    5.3574   -0.1946 C   0  0  0  1  0  0  0  0  0  0  0  0
   -1.3901    2.7156    1.3391 C   0  0  0  1  0  0  0  0  0  0  0  0
   -2.4373    7.0778    2.4107 H   0  0  0  1  0  0  0  0  0  0  0  0
   -1.2751    4.9856    2.7834 H   0  0  0  1  0  0  0  0  0  0  0  0
   -3.0970    3.3627   -0.6338 H   0  0  0  1  0  0  0  0  0  0  0  0
   -4.2610    5.4585   -1.0070 H   0  0  0  1  0  0  0  0  0  0  0  0
   -1.1361    2.3015    0.3858 H   0  0  0  1  0  0  0  0  0  0  0  0
   -0.4955    2.9248    1.8876 H   0  0  0  1  0  0  0  0  0  0  0  0
  1  4  1  0  0  0  0
  2  4  1  0  0  0  0
  2  5  2  0  0  0  0
  2  6  1  0  0  0  0
  3  4  1  0  0  0  0
  3  7  1  0  0  0  0
  3  8  1  0  0  0  0
  4 26  1  0  0  0  0
  6  9  1  0  0  0  0
  6 12  1  0  0  0  0
  8 10  1  0  0  0  0
  8 11  2  0  0  0  0
  9 13  1  0  0  0  0
  9 14  1  0  0  0  0
  9 15  1  0  0  0  0
 10 16  1  0  0  0  0
 10 17  1  0  0  0  0
 10 18  1  0  0  0  0
 19 20  1  0  0  0  0
 20 21  4  0  0  0  0
 20 25  4  0  0  0  0
 21 22  4  0  0  0  0
 21 27  1  0  0  0  0
 22 23  4  0  0  0  0
 22 28  1  0  0  0  0
 23 24  4  0  0  0  0
 23 26  1  0  0  0  0
 24 25  4  0  0  0  0
 24 29  1  0  0  0  0
 25 30  1  0  0  0  0
 26 31  1  0  0  0  0
 26 32  1  0  0  0  0
M  END
> <BCLConfClusterSize>
1

> <ConfClashScore>
0 

> <ConfOneFourInteractionScore>
-0.94165 

> <ConfScore>
-0.195141 

> <ConfScorePBest>
0.00649524 

> <ConfTolerance>
0.285928 

> <RosettaParamsInstructions>
M  ROOT 3
M  POLY_N_BB 3
M  POLY_CA_BB 4
M  POLY_C_BB 2
M  POLY_O_BB 5
M  POLY_IGNORE 9 10 11 12 13 14 15 16 17 18 
M  POLY_UPPER 6
M  POLY_LOWER 8
M  POLY_CHG 0
M  POLY_PROPERTIES ALPHA_AA L_AA PROTEIN AROMATIC POLYMER 
M  END

$$$$



 32 32  0  0  0  0  0  0  0  0999 V2000
    0.5868    3.3759    1.2451 H   0  0  0  1  0  0  0  0  0  0  0  0
    0.6938    1.2980    1.0005 C   0  0  0  1  0  0  0  0  0  0  0  0
   -0.0469    2.9598   -0.6733 N   0  0  0  1  0  0  0  0  0  0  0  0
    0.0076    2.6225    0.7535 C   0  0  0  1  0  0  0  0  0  0  0  0
    0.7240    0.4307    0.1285 O   0  0  0  1  0  0  0  0  0  0  0  0
    1.2676    1.0981    2.1975 N   0  0  0  1  0  0  0  0  0  0  0  0
   -0.9293    3.0721   -1.0848 H   0  0  0  1  0  0  0  0  0  0  0  0
    1.0703    3.1297   -1.4767 C   0  0  0  1  0  0  0  0  0  0  0  0
    1.8401   -0.1837    2.5808 C   0  0  0  1  0  0  0  0  0  0  0  0
    0.8816    3.3869   -2.9454 C   0  0  0  1  0  0  0  0  0  0  0  0
    2.1722    3.0647   -0.9629 O   0  0  0  1  0  0  0  0  0  0  0  0
    1.3022    1.8413    2.8355 H   0  0  0  1  0  0  0  0  0  0  0  0
    1.2463   -0.9758    2.1748 H   0  0  0  1  0  0  0  0  0  0  0  0
    1.8569   -0.2618    3.6478 H   0  0  0  1  0  0  0  0  0  0  0  0
    2.8381   -0.2560    2.2017 H   0  0  0  1  0  0  0  0  0  0  0  0
    0.2280    4.2232   -3.0805 H   0  0  0  1  0  0  0  0  0  0  0  0
    0.4533    2.5216   -3.4066 H   0  0  0  1  0  0  0  0  0  0  0  0
    1.8293    3.5989   -3.3947 H   0  0  0  1  0  0  0  0  0  0  0  0
   -4.4282    8.2202    0.3317 I   0  0  0  1  0  0  0  0  0  0  0  0
   -3.4115    6.4323    0.7029 C   0  0  0  1  0  0  0  0  0  0  0  0
   -2.5568    6.2769    1.7831 C   0  0  0  1  0  0  0  0  0  0  0  0
   -1.9042    5.0747    1.9808 C   0  0  0  1  0  0  0  0  0  0  0  0
   -2.1085    4.0226    1.1017 C   0  0  0  1  0  0  0  0  0  0  0  0
   -2.9606    4.1774    0.0245 C   0  0  0  1  0  0  0  0  0  0  0  0
   -3.6151    5.3832   -0.1735 C   0  0  0  1  0  0  0  0  0  0  0  0
   -1.4001    2.7066    1.3203 C   0  0  0  1  0  0  0  0  0  0  0  0
   -2.4067    7.0649    2.4450 H   0  0  0  1  0  0  0  0  0  0  0  0
   -1.2599    4.9595    2.7890 H   0  0  0  1  0  0  0  0  0  0  0  0
   -3.1108    3.3893   -0.6372 H   0  0  0  1  0  0  0  0  0  0  0  0
   -4.2595    5.4985   -0.9817 H   0  0  0  1  0  0  0  0  0  0  0  0
   -1.3422    2.5341    2.3747 H   0  0  0  1  0  0  0  0  0  0  0  0
   -1.9863    1.9365    0.8641 H   0  0  0  1  0  0  0  0  0  0  0  0
  1  4  1  0  0  0  0
  2  4  1  0  0  0  0
  2  5  2  0  0  0  0
  2  6  1  0  0  0  0
  3  4  1  0  0  0  0
  3  7  1  0  0  0  0
  3  8  1  0  0  0  0
  4 26  1  0  0  0  0
  6  9  1  0  0  0  0
  6 12  1  0  0  0  0
  8 10  1  0  0  0  0
  8 11  2  0  0  0  0
  9 13  1  0  0  0  0
  9 14  1  0  0  0  0
  9 15  1  0  0  0  0
 10 16  1  0  0  0  0
 10 17  1  0  0  0  0
 10 18  1  0  0  0  0
 19 20  1  0  0  0  0
 20 21  4  0  0  0  0
 20 25  4  0  0  0  0
 21 22  4  0  0  0  0
 21 27  1  0  0  0  0
 22 23  4  0  0  0  0
 22 28  1  0  0  0  0
 23 24  4  0  0  0  0
 23 26  1  0  0  0  0
 24 25  4  0  0  0  0
 24 29  1  0  0  0  0
 25 30  1  0  0  0  0
 26 31  1  0  0  0  0
 26 32  1  0  0  0  0
M  END
> <BCLConfClusterSize>
1

> <ConfClashScore>
0 

> <ConfOneFourInteractionScore>
-0.985807 

> <ConfScore>
-0.194524 

> <ConfScorePBest>
0.00646676 

> <ConfTolerance>
0.192382 

> <RosettaParamsInstructions>
M  ROOT 3
M  POLY_N_BB 3
M  POLY_CA_BB 4
M  POLY_C_BB 2
M  POLY_O_BB 5
M  POLY_IGNORE 9 10 11 12 13 14 15 16 17 18 
M  POLY_UPPER 6
M  POLY_LOWER 8
M  POLY_CHG 0
M  POLY_PROPERTIES ALPHA_AA L_AA PROTEIN AROMATIC POLYMER 
M  END

$$$$



 32 32  0  0  0  0  0  0  0  0999 V2000
   -3.0753    1.6626    2.0160 H   0  0  0  1  0  0  0  0  0  0  0  0
   -1.3604    0.5117    2.5217 C   0  0  0  1  0  0  0  0  0  0  0  0
   -2.1635    2.4419    3.7119 N   0  0  0  1  0  0  0  0  0  0  0  0
   -2.0883    1.8445    2.3870 C   0  0  0  1  0  0  0  0  0  0  0  0
   -0.4140    0.3810    3.2805 O   0  0  0  1  0  0  0  0  0  0  0  0
   -1.8265   -0.4836    1.7620 N   0  0  0  1  0  0  0  0  0  0  0  0
   -1.5748    3.1958    3.9248 H   0  0  0  1  0  0  0  0  0  0  0  0
   -3.0107    1.9963    4.6520 C   0  0  0  1  0  0  0  0  0  0  0  0
   -1.2980   -1.8395    1.7489 C   0  0  0  1  0  0  0  0  0  0  0  0
   -2.8590    2.5997    6.0348 C   0  0  0  1  0  0  0  0  0  0  0  0
   -3.9162    1.2052    4.4014 O   0  0  0  1  0  0  0  0  0  0  0  0
   -2.5812   -0.2857    1.1690 H   0  0  0  1  0  0  0  0  0  0  0  0
   -1.4749   -2.3010    2.6979 H   0  0  0  1  0  0  0  0  0  0  0  0
   -0.2456   -1.8100    1.5576 H   0  0  0  1  0  0  0  0  0  0  0  0
   -1.7848   -2.4044    0.9816 H   0  0  0  1  0  0  0  0  0  0  0  0
   -1.9684    2.2231    6.4930 H   0  0  0  1  0  0  0  0  0  0  0  0
   -3.7061    2.3369    6.6332 H   0  0  0  1  0  0  0  0  0  0  0  0
   -2.7953    3.6647    5.9539 H   0  0  0  1  0  0  0  0  0  0  0  0
   -4.3737    8.2665    0.4326 I   0  0  0  1  0  0  0  0  0  0  0  0
   -3.4236    6.4215    0.6803 C   0  0  0  1  0  0  0  0  0  0  0  0
   -2.5699    6.2709    1.7619 C   0  0  0  1  0  0  0  0  0  0  0  0
   -1.9150    5.0707    1.9638 C   0  0  0  1  0  0  0  0  0  0  0  0
   -2.1160    4.0157    1.0875 C   0  0  0  1  0  0  0  0  0  0  0  0
   -2.9672    4.1656    0.0089 C   0  0  0  1  0  0  0  0  0  0  0  0
   -3.6240    5.3695   -0.1935 C   0  0  0  1  0  0  0  0  0  0  0  0
   -1.3567    2.7489    1.4039 C   0  0  0  1  0  0  0  0  0  0  0  0
   -2.4222    7.0612    2.4217 H   0  0  0  1  0  0  0  0  0  0  0  0
   -1.2714    4.9591    2.7731 H   0  0  0  1  0  0  0  0  0  0  0  0
   -3.1149    3.3753   -0.6509 H   0  0  0  1  0  0  0  0  0  0  0  0
   -4.2675    5.4811   -1.0028 H   0  0  0  1  0  0  0  0  0  0  0  0
   -1.2022    2.2081    0.4936 H   0  0  0  1  0  0  0  0  0  0  0  0
   -0.4103    3.0156    1.8259 H   0  0  0  1  0  0  0  0  0  0  0  0
  1  4  1  0  0  0  0
  2  4  1  0  0  0  0
  2  5  2  0  0  0  0
  2  6  1  0  0  0  0
  3  4  1  0  0  0  0
  3  7  1  0  0  0  0
  3  8  1  0  0  0  0
  4 26  1  0  0  0  0
  6  9  1  0  0  0  0
  6 12  1  0  0  0  0
  8 10  1  0  0  0  0
  8 11  2  0  0  0  0
  9 13  1  0  0  0  0
  9 14  1  0  0  0  0
  9 15  1  0  0  0  0
 10 16  1  0  0  0  0
 10 17  1  0  0  0  0
 10 18  1  0  0  0  0
 19 20  1  0  0  0  0
 20 21  4  0  0  0  0
 20 25  4  0  0  0  0
 21 22  4  0  0  0  0
 21 27  1  0  0  0  0
 22 23  4  0  0  0  0
 22 28  1  0  0  0  0
 23 24  4  0  0  0  0
 23 26  1  0  0  0  0
 24 25  4  0  0  0  0
 24 29  1  0  0  0  0
 25 30  1  0  0  0  0
 26 31  1  0  0  0  0
 26 32  1  0  0  0  0
M  END
> <BCLConfClusterSize>
1

> <ConfClashScore>
0 

> <ConfOneFourInteractionScore>
-0.985807 

> <ConfScore>
-0.193952 

> <ConfScorePBest>
0.00643828 

> <ConfTolerance>
0.20679 

> <RosettaParamsInstructions>
M  ROOT 3
M  POLY_N_BB 3
M  POLY_CA_BB 4
M  POLY_C_BB 2
M  POLY_O_BB 5
M  POLY_IGNORE 9 10 11 12 13 14 15 16 17 18 
M  POLY_UPPER 6
M  POLY_LOWER 8
M  POLY_CHG 0
M  POLY_PROPERTIES ALPHA_AA L_AA PROTEIN AROMATIC POLYMER 
M  END

$$$$



 32 32  0  0  0  0  0  0  0  0999 V2000
   -3.0336    1.3468    1.2853 H   0  0  0  1  0  0  0  0  0  0  0  0
   -1.4303    0.4420    2.3456 C   0  0  0  1  0  0  0  0  0  0  0  0
   -2.9213    2.2033    3.1733 N   0  0  0  1  0  0  0  0  0  0  0  0
   -2.2851    1.6508    1.9869 C   0  0  0  1  0  0  0  0  0  0  0  0
   -0.8472   -0.1985    1.4864 O   0  0  0  1  0  0  0  0  0  0  0  0
   -1.3674    0.1409    3.6457 N   0  0  0  1  0  0  0  0  0  0  0  0
   -2.3861    2.7984    3.7389 H   0  0  0  1  0  0  0  0  0  0  0  0
   -4.2276    1.9513    3.5639 C   0  0  0  1  0  0  0  0  0  0  0  0
   -0.5403   -0.9451    4.0425 C   0  0  0  1  0  0  0  0  0  0  0  0
   -4.7868    2.6771    4.7553 C   0  0  0  1  0  0  0  0  0  0  0  0
   -4.8812    1.1466    2.9254 O   0  0  0  1  0  0  0  0  0  0  0  0
   -1.8769    0.6541    4.3071 H   0  0  0  1  0  0  0  0  0  0  0  0
   -0.5596   -1.7031    3.2875 H   0  0  0  1  0  0  0  0  0  0  0  0
   -0.9023   -1.3506    4.9641 H   0  0  0  1  0  0  0  0  0  0  0  0
    0.4635   -0.5989    4.1744 H   0  0  0  1  0  0  0  0  0  0  0  0
   -5.8237    2.4371    4.8654 H   0  0  0  1  0  0  0  0  0  0  0  0
   -4.6782    3.7320    4.6132 H   0  0  0  1  0  0  0  0  0  0  0  0
   -4.2565    2.3787    5.6355 H   0  0  0  1  0  0  0  0  0  0  0  0
   -4.4032    8.2433    0.3789 I   0  0  0  1  0  0  0  0  0  0  0  0
   -3.4175    6.4271    0.6918 C   0  0  0  1  0  0  0  0  0  0  0  0
   -2.5641    6.2783    1.7740 C   0  0  0  1  0  0  0  0  0  0  0  0
   -1.9084    5.0788    1.9774 C   0  0  0  1  0  0  0  0  0  0  0  0
   -2.1083    4.0227    1.1021 C   0  0  0  1  0  0  0  0  0  0  0  0
   -2.9591    4.1708    0.0229 C   0  0  0  1  0  0  0  0  0  0  0  0
   -3.6167    5.3740   -0.1809 C   0  0  0  1  0  0  0  0  0  0  0  0
   -1.3965    2.7096    1.3270 C   0  0  0  1  0  0  0  0  0  0  0  0
   -2.4173    7.0693    2.4330 H   0  0  0  1  0  0  0  0  0  0  0  0
   -1.2651    4.9685    2.7871 H   0  0  0  1  0  0  0  0  0  0  0  0
   -3.1058    3.3797   -0.6360 H   0  0  0  1  0  0  0  0  0  0  0  0
   -4.2600    5.4843   -0.9906 H   0  0  0  1  0  0  0  0  0  0  0  0
   -1.0658    2.3350    0.3808 H   0  0  0  1  0  0  0  0  0  0  0  0
   -0.5499    2.8847    1.9575 H   0  0  0  1  0  0  0  0  0  0  0  0
  1  4  1  0  0  0  0
  2  4  1  0  0  0  0
  2  5  2  0  0  0  0
  2  6  1  0  0  0  0
  3  4  1  0  0  0  0
  3  7  1  0  0  0  0
  3  8  1  0  0  0  0
  4 26  1  0  0  0  0
  6  9  1  0  0  0  0
  6 12  1  0  0  0  0
  8 10  1  0  0  0  0
  8 11  2  0  0  0  0
  9 13  1  0  0  0  0
  9 14  1  0  0  0  0
  9 15  1  0  0  0  0
 10 16  1  0  0  0  0
 10 17  1  0  0  0  0
 10 18  1  0  0  0  0
 19 20  1  0  0  0  0
 20 21  4  0  0  0  0
 20 25  4  0  0  0  0
 21 22  4  0  0  0  0
 21 27  1  0  0  0  0
 22 23  4  0  0  0  0
 22 28  1  0  0  0  0
 23 24  4  0  0  0  0
 23 26  1  0  0  0  0
 24 25  4  0  0  0  0
 24 29  1  0  0  0  0
 25 30  1  0  0  0  0
 26 31  1  0  0  0  0
 26 32  1  0  0  0  0
M  END
> <BCLConfClusterSize>
1

> <ConfClashScore>
0 

> <ConfOneFourInteractionScore>
-0.94165 

> <ConfScore>
-0.193023 

> <ConfScorePBest>
0.0064098 

> <ConfTolerance>
0.267202 

> <RosettaParamsInstructions>
M  ROOT 3
M  POLY_N_BB 3
M  POLY_CA_BB 4
M  POLY_C_BB 2
M  POLY_O_BB 5
M  POLY_IGNORE 9 10 11 12 13 14 15 16 17 18 
M  POLY_UPPER 6
M  POLY_LOWER 8
M  POLY_CHG 0
M  POLY_PROPERTIES ALPHA_AA L_AA PROTEIN AROMATIC POLYMER 
M  END

$$$$



 32 32  0  0  0  0  0  0  0  0999 V2000
   -3.0226    1.5975    2.0797 H   0  0  0  1  0  0  0  0  0  0  0  0
   -1.2168    0.5473    2.5221 C   0  0  0  1  0  0  0  0  0  0  0  0
   -2.0366    2.5802    3.6302 N   0  0  0  1  0  0  0  0  0  0  0  0
   -2.0236    1.8373    2.3788 C   0  0  0  1  0  0  0  0  0  0  0  0
   -1.0850   -0.2314    1.5788 O   0  0  0  1  0  0  0  0  0  0  0  0
   -0.6730    0.3308    3.7302 N   0  0  0  1  0  0  0  0  0  0  0  0
   -1.3956    3.3150    3.7275 H   0  0  0  1  0  0  0  0  0  0  0  0
   -2.8636    2.3339    4.6649 C   0  0  0  1  0  0  0  0  0  0  0  0
   -0.0863   -0.9276    4.1662 C   0  0  0  1  0  0  0  0  0  0  0  0
   -2.7651    3.3561    5.7805 C   0  0  0  1  0  0  0  0  0  0  0  0
   -3.6313    1.3879    4.7302 O   0  0  0  1  0  0  0  0  0  0  0  0
   -0.6708    1.0762    4.3663 H   0  0  0  1  0  0  0  0  0  0  0  0
   -0.8500   -1.6743    4.2309 H   0  0  0  1  0  0  0  0  0  0  0  0
    0.3657   -0.7961    5.1271 H   0  0  0  1  0  0  0  0  0  0  0  0
    0.6566   -1.2377    3.4614 H   0  0  0  1  0  0  0  0  0  0  0  0
   -3.0100    4.3254    5.3994 H   0  0  0  1  0  0  0  0  0  0  0  0
   -1.7675    3.3667    6.1671 H   0  0  0  1  0  0  0  0  0  0  0  0
   -3.4484    3.0974    6.5623 H   0  0  0  1  0  0  0  0  0  0  0  0
   -4.3546    8.2570    0.3230 I   0  0  0  1  0  0  0  0  0  0  0  0
   -3.4384    6.4193    0.7122 C   0  0  0  1  0  0  0  0  0  0  0  0
   -2.5773    6.2714    1.7883 C   0  0  0  1  0  0  0  0  0  0  0  0
   -1.9077    5.0775    1.9788 C   0  0  0  1  0  0  0  0  0  0  0  0
   -2.1014    4.0259    1.0967 C   0  0  0  1  0  0  0  0  0  0  0  0
   -2.9601    4.1731    0.0237 C   0  0  0  1  0  0  0  0  0  0  0  0
   -3.6316    5.3707   -0.1673 C   0  0  0  1  0  0  0  0  0  0  0  0
   -1.3745    2.7188    1.3076 C   0  0  0  1  0  0  0  0  0  0  0  0
   -2.4350    7.0590    2.4524 H   0  0  0  1  0  0  0  0  0  0  0  0
   -1.2585    4.9680    2.7840 H   0  0  0  1  0  0  0  0  0  0  0  0
   -3.1023    3.3854   -0.6404 H   0  0  0  1  0  0  0  0  0  0  0  0
   -4.2807    5.4802   -0.9724 H   0  0  0  1  0  0  0  0  0  0  0  0
   -1.3662    2.1807    0.3828 H   0  0  0  1  0  0  0  0  0  0  0  0
   -0.3692    2.9324    1.6055 H   0  0  0  1  0  0  0  0  0  0  0  0
  1  4  1  0  0  0  0
  2  4  1  0  0  0  0
  2  5  2  0  0  0  0
  2  6  1  0  0  0  0
  3  4  1  0  0  0  0
  3  7  1  0  0  0  0
  3  8  1  0  0  0  0
  4 26  1  0  0  0  0
  6  9  1  0  0  0  0
  6 12  1  0  0  0  0
  8 10  1  0  0  0  0
  8 11  2  0  0  0  0
  9 13  1  0  0  0  0
  9 14  1  0  0  0  0
  9 15  1  0  0  0  0
 10 16  1  0  0  0  0
 10 17  1  0  0  0  0
 10 18  1  0  0  0  0
 19 20  1  0  0  0  0
 20 21  4  0  0  0  0
 20 25  4  0  0  0  0
 21 22  4  0  0  0  0
 21 27  1  0  0  0  0
 22 23  4  0  0  0  0
 22 28  1  0  0  0  0
 23 24  4  0  0  0  0
 23 26  1  0  0  0  0
 24 25  4  0  0  0  0
 24 29  1  0  0  0  0
 25 30  1  0  0  0  0
 26 31  1  0  0  0  0
 26 32  1  0  0  0  0
M  END
> <BCLConfClusterSize>
1

> <ConfClashScore>
0 

> <ConfOneFourInteractionScore>
-0.937775 

> <ConfScore>
-0.190556 

> <ConfScorePBest>
0.00638132 

> <ConfTolerance>
0.294318 

> <RosettaParamsInstructions>
M  ROOT 3
M  POLY_N_BB 3
M  POLY_CA_BB 4
M  POLY_C_BB 2
M  POLY_O_BB 5
M  POLY_IGNORE 9 10 11 12 13 14 15 16 17 18 
M  POLY_UPPER 6
M  POLY_LOWER 8
M  POLY_CHG 0
M  POLY_PROPERTIES ALPHA_AA L_AA PROTEIN AROMATIC POLYMER 
M  END

$$$$



 32 32  0  0  0  0  0  0  0  0999 V2000
   -3.1045    1.8759    2.2676 H   0  0  0  1  0  0  0  0  0  0  0  0
   -1.5698    0.4224    2.2833 C   0  0  0  1  0  0  0  0  0  0  0  0
   -1.7544    2.4467    3.7314 N   0  0  0  1  0  0  0  0  0  0  0  0
   -2.0458    1.8617    2.4223 C   0  0  0  1  0  0  0  0  0  0  0  0
   -2.2377   -0.4346    1.7338 O   0  0  0  1  0  0  0  0  0  0  0  0
   -0.3773    0.0819    2.7804 N   0  0  0  1  0  0  0  0  0  0  0  0
   -1.0533    3.1299    3.7764 H   0  0  0  1  0  0  0  0  0  0  0  0
   -2.3712    2.1201    4.8681 C   0  0  0  1  0  0  0  0  0  0  0  0
    0.1277   -1.2818    2.7244 C   0  0  0  1  0  0  0  0  0  0  0  0
   -1.8567    2.8076    6.1178 C   0  0  0  1  0  0  0  0  0  0  0  0
   -3.2996    1.3151    4.9188 O   0  0  0  1  0  0  0  0  0  0  0  0
    0.1766    0.7747    3.1971 H   0  0  0  1  0  0  0  0  0  0  0  0
    0.8488   -1.3636    1.9381 H   0  0  0  1  0  0  0  0  0  0  0  0
   -0.6828   -1.9545    2.5362 H   0  0  0  1  0  0  0  0  0  0  0  0
    0.5884   -1.5298    3.6577 H   0  0  0  1  0  0  0  0  0  0  0  0
   -2.3349    2.3887    6.9785 H   0  0  0  1  0  0  0  0  0  0  0  0
   -2.0731    3.8540    6.0637 H   0  0  0  1  0  0  0  0  0  0  0  0
   -0.7989    2.6650    6.1931 H   0  0  0  1  0  0  0  0  0  0  0  0
   -4.4030    8.2428    0.3790 I   0  0  0  1  0  0  0  0  0  0  0  0
   -3.4172    6.4266    0.6919 C   0  0  0  1  0  0  0  0  0  0  0  0
   -2.5639    6.2778    1.7741 C   0  0  0  1  0  0  0  0  0  0  0  0
   -1.9082    5.0783    1.9775 C   0  0  0  1  0  0  0  0  0  0  0  0
   -2.1080    4.0222    1.1021 C   0  0  0  1  0  0  0  0  0  0  0  0
   -2.9588    4.1704    0.0230 C   0  0  0  1  0  0  0  0  0  0  0  0
   -3.6164    5.3735   -0.1809 C   0  0  0  1  0  0  0  0  0  0  0  0
   -1.3993    2.7147    1.3261 C   0  0  0  1  0  0  0  0  0  0  0  0
   -2.4171    7.0689    2.4331 H   0  0  0  1  0  0  0  0  0  0  0  0
   -1.2649    4.9680    2.7872 H   0  0  0  1  0  0  0  0  0  0  0  0
   -3.1056    3.3793   -0.6360 H   0  0  0  1  0  0  0  0  0  0  0  0
   -4.2597    5.4838   -0.9905 H   0  0  0  1  0  0  0  0  0  0  0  0
   -1.4112    2.1598    0.4113 H   0  0  0  1  0  0  0  0  0  0  0  0
   -0.3872    2.9196    1.6064 H   0  0  0  1  0  0  0  0  0  0  0  0
  1  4  1  0  0  0  0
  2  4  1  0  0  0  0
  2  5  2  0  0  0  0
  2  6  1  0  0  0  0
  3  4  1  0  0  0  0
  3  7  1  0  0  0  0
  3  8  1  0  0  0  0
  4 26  1  0  0  0  0
  6  9  1  0  0  0  0
  6 12  1  0  0  0  0
  8 10  1  0  0  0  0
  8 11  2  0  0  0  0
  9 13  1  0  0  0  0
  9 14  1  0  0  0  0
  9 15  1  0  0  0  0
 10 16  1  0  0  0  0
 10 17  1  0  0  0  0
 10 18  1  0  0  0  0
 19 20  1  0  0  0  0
 20 21  4  0  0  0  0
 20 25  4  0  0  0  0
 21 22  4  0  0  0  0
 21 27  1  0  0  0  0
 22 23  4  0  0  0  0
 22 28  1  0  0  0  0
 23 24  4  0  0  0  0
 23 26  1  0  0  0  0
 24 25  4  0  0  0  0
 24 29  1  0  0  0  0
 25 30  1  0  0  0  0
 26 31  1  0  0  0  0
 26 32  1  0  0  0  0
M  END
> <BCLConfClusterSize>
1

> <ConfClashScore>
0 

> <ConfOneFourInteractionScore>
-0.944706 

> <ConfScore>
-0.18761 

> <ConfScorePBest>
0.00635284 

> <ConfTolerance>
0.226879 

> <RosettaParamsInstructions>
M  ROOT 3
M  POLY_N_BB 3
M  POLY_CA_BB 4
M  POLY_C_BB 2
M  POLY_O_BB 5
M  POLY_IGNORE 9 10 11 12 13 14 15 16 17 18 
M  POLY_UPPER 6
M  POLY_LOWER 8
M  POLY_CHG 0
M  POLY_PROPERTIES ALPHA_AA L_AA PROTEIN AROMATIC POLYMER 
M  END

$$$$



 32 32  0  0  0  0  0  0  0  0999 V2000
    0.5442    3.3358    0.9046 H   0  0  0  1  0  0  0  0  0  0  0  0
    0.6798    1.2433    1.0355 C   0  0  0  1  0  0  0  0  0  0  0  0
   -0.2216    2.5438   -0.8463 N   0  0  0  1  0  0  0  0  0  0  0  0
   -0.0652    2.5033    0.6211 C   0  0  0  1  0  0  0  0  0  0  0  0
    0.2272    0.1271    0.7951 O   0  0  0  1  0  0  0  0  0  0  0  0
    1.8491    1.4383    1.6727 N   0  0  0  1  0  0  0  0  0  0  0  0
   -0.9350    2.0148   -1.2607 H   0  0  0  1  0  0  0  0  0  0  0  0
    0.5833    3.2838   -1.6367 C   0  0  0  1  0  0  0  0  0  0  0  0
    2.6909    0.3338    2.1078 C   0  0  0  1  0  0  0  0  0  0  0  0
    0.3835    3.1978   -3.1374 C   0  0  0  1  0  0  0  0  0  0  0  0
    1.4530    4.0065   -1.1574 O   0  0  0  1  0  0  0  0  0  0  0  0
    2.1439    2.3559    1.8499 H   0  0  0  1  0  0  0  0  0  0  0  0
    2.6692   -0.4431    1.3724 H   0  0  0  1  0  0  0  0  0  0  0  0
    2.3265   -0.0467    3.0391 H   0  0  0  1  0  0  0  0  0  0  0  0
    3.6961    0.6791    2.2319 H   0  0  0  1  0  0  0  0  0  0  0  0
    1.3084    3.4065   -3.6333 H   0  0  0  1  0  0  0  0  0  0  0  0
   -0.3527    3.9127   -3.4404 H   0  0  0  1  0  0  0  0  0  0  0  0
    0.0539    2.2136   -3.3972 H   0  0  0  1  0  0  0  0  0  0  0  0
   -4.4059    8.2409    0.3740 I   0  0  0  1  0  0  0  0  0  0  0  0
   -3.4171    6.4273    0.6924 C   0  0  0  1  0  0  0  0  0  0  0  0
   -2.5646    6.2828    1.7759 C   0  0  0  1  0  0  0  0  0  0  0  0
   -1.9069    5.0850    1.9830 C   0  0  0  1  0  0  0  0  0  0  0  0
   -2.1039    4.0264    1.1101 C   0  0  0  1  0  0  0  0  0  0  0  0
   -2.9538    4.1702    0.0297 C   0  0  0  1  0  0  0  0  0  0  0  0
   -3.6134    5.3716   -0.1778 C   0  0  0  1  0  0  0  0  0  0  0  0
   -1.4177    2.6926    1.2883 C   0  0  0  1  0  0  0  0  0  0  0  0
   -2.4200    7.0758    2.4331 H   0  0  0  1  0  0  0  0  0  0  0  0
   -1.2643    4.9780    2.7937 H   0  0  0  1  0  0  0  0  0  0  0  0
   -3.0984    3.3772   -0.6274 H   0  0  0  1  0  0  0  0  0  0  0  0
   -4.2560    5.4787   -0.9885 H   0  0  0  1  0  0  0  0  0  0  0  0
   -1.2806    2.5409    2.3386 H   0  0  0  1  0  0  0  0  0  0  0  0
   -2.0736    1.9409    0.9014 H   0  0  0  1  0  0  0  0  0  0  0  0
  1  4  1  0  0  0  0
  2  4  1  0  0  0  0
  2  5  2  0  0  0  0
  2  6  1  0  0  0  0
  3  4  1  0  0  0  0
  3  7  1  0  0  0  0
  3  8  1  0  0  0  0
  4 26  1  0  0  0  0
  6  9  1  0  0  0  0
  6 12  1  0  0  0  0
  8 10  1  0  0  0  0
  8 11  2  0  0  0  0
  9 13  1  0  0  0  0
  9 14  1  0  0  0  0
  9 15  1  0  0  0  0
 10 16  1  0  0  0  0
 10 17  1  0  0  0  0
 10 18  1  0  0  0  0
 19 20  1  0  0  0  0
 20 21  4  0  0  0  0
 20 25  4  0  0  0  0
 21 22  4  0  0  0  0
 21 27  1  0  0  0  0
 22 23  4  0  0  0  0
 22 28  1  0  0  0  0
 23 24  4  0  0  0  0
 23 26  1  0  0  0  0
 24 25  4  0  0  0  0
 24 29  1  0  0  0  0
 25 30  1  0  0  0  0
 26 31  1  0  0  0  0
 26 32  1  0  0  0  0
M  END
> <BCLConfClusterSize>
1

> <ConfClashScore>
0 

> <ConfOneFourInteractionScore>
-0.978127 

> <ConfScore>
-0.184621 

> <ConfScorePBest>
0.00632436 

> <ConfTolerance>
0.205886 

> <RosettaParamsInstructions>
M  ROOT 3
M  POLY_N_BB 3
M  POLY_CA_BB 4
M  POLY_C_BB 2
M  POLY_O_BB 5
M  POLY_IGNORE 9 10 11 12 13 14 15 16 17 18 
M  POLY_UPPER 6
M  POLY_LOWER 8
M  POLY_CHG 0
M  POLY_PROPERTIES ALPHA_AA L_AA PROTEIN AROMATIC POLYMER 
M  END

$$$$



 32 32  0  0  0  0  0  0  0  0999 V2000
   -3.1177    1.5556    1.1809 H   0  0  0  1  0  0  0  0  0  0  0  0
   -1.7056    0.2378    1.9293 C   0  0  0  1  0  0  0  0  0  0  0  0
   -2.9216    2.0085    3.1661 N   0  0  0  1  0  0  0  0  0  0  0  0
   -2.3097    1.6229    1.8791 C   0  0  0  1  0  0  0  0  0  0  0  0
   -0.6690    0.0239    2.5565 O   0  0  0  1  0  0  0  0  0  0  0  0
   -2.3334   -0.7489    1.2701 N   0  0  0  1  0  0  0  0  0  0  0  0
   -2.3561    2.4150    3.8556 H   0  0  0  1  0  0  0  0  0  0  0  0
   -4.2249    1.8219    3.4245 C   0  0  0  1  0  0  0  0  0  0  0  0
   -1.8632   -2.1210    1.3881 C   0  0  0  1  0  0  0  0  0  0  0  0
   -4.6851    2.2223    4.8127 C   0  0  0  1  0  0  0  0  0  0  0  0
   -5.0113    1.3569    2.6006 O   0  0  0  1  0  0  0  0  0  0  0  0
   -3.1099   -0.5446    0.7083 H   0  0  0  1  0  0  0  0  0  0  0  0
   -1.3504   -2.2441    2.3191 H   0  0  0  1  0  0  0  0  0  0  0  0
   -1.1949   -2.3394    0.5815 H   0  0  0  1  0  0  0  0  0  0  0  0
   -2.6986   -2.7885    1.3504 H   0  0  0  1  0  0  0  0  0  0  0  0
   -5.0191    1.3546    5.3424 H   0  0  0  1  0  0  0  0  0  0  0  0
   -5.4897    2.9230    4.7332 H   0  0  0  1  0  0  0  0  0  0  0  0
   -3.8711    2.6717    5.3423 H   0  0  0  1  0  0  0  0  0  0  0  0
   -4.4032    8.2433    0.3789 I   0  0  0  1  0  0  0  0  0  0  0  0
   -3.4175    6.4271    0.6918 C   0  0  0  1  0  0  0  0  0  0  0  0
   -2.5641    6.2783    1.7740 C   0  0  0  1  0  0  0  0  0  0  0  0
   -1.9084    5.0788    1.9774 C   0  0  0  1  0  0  0  0  0  0  0  0
   -2.1083    4.0227    1.1021 C   0  0  0  1  0  0  0  0  0  0  0  0
   -2.9591    4.1708    0.0229 C   0  0  0  1  0  0  0  0  0  0  0  0
   -3.6167    5.3740   -0.1809 C   0  0  0  1  0  0  0  0  0  0  0  0
   -1.3965    2.7096    1.3270 C   0  0  0  1  0  0  0  0  0  0  0  0
   -2.4173    7.0693    2.4330 H   0  0  0  1  0  0  0  0  0  0  0  0
   -1.2651    4.9685    2.7871 H   0  0  0  1  0  0  0  0  0  0  0  0
   -3.1058    3.3797   -0.6360 H   0  0  0  1  0  0  0  0  0  0  0  0
   -4.2600    5.4843   -0.9906 H   0  0  0  1  0  0  0  0  0  0  0  0
   -0.9953    2.3753    0.3930 H   0  0  0  1  0  0  0  0  0  0  0  0
   -0.5986    2.8694    2.0217 H   0  0  0  1  0  0  0  0  0  0  0  0
  1  4  1  0  0  0  0
  2  4  1  0  0  0  0
  2  5  2  0  0  0  0
  2  6  1  0  0  0  0
  3  4  1  0  0  0  0
  3  7  1  0  0  0  0
  3  8  1  0  0  0  0
  4 26  1  0  0  0  0
  6  9  1  0  0  0  0
  6 12  1  0  0  0  0
  8 10  1  0  0  0  0
  8 11  2  0  0  0  0
  9 13  1  0  0  0  0
  9 14  1  0  0  0  0
  9 15  1  0  0  0  0
 10 16  1  0  0  0  0
 10 17  1  0  0  0  0
 10 18  1  0  0  0  0
 19 20  1  0  0  0  0
 20 21  4  0  0  0  0
 20 25  4  0  0  0  0
 21 22  4  0  0  0  0
 21 27  1  0  0  0  0
 22 23  4  0  0  0  0
 22 28  1  0  0  0  0
 23 24  4  0  0  0  0
 23 26  1  0  0  0  0
 24 25  4  0  0  0  0
 24 29  1  0  0  0  0
 25 30  1  0  0  0  0
 26 31  1  0  0  0  0
 26 32  1  0  0  0  0
M  END
> <BCLConfClusterSize>
1

> <ConfClashScore>
0 

> <ConfOneFourInteractionScore>
-0.979134 

> <ConfScore>
-0.178883 

> <ConfScorePBest>
0.00629587 

> <ConfTolerance>
0.22701 

> <RosettaParamsInstructions>
M  ROOT 3
M  POLY_N_BB 3
M  POLY_CA_BB 4
M  POLY_C_BB 2
M  POLY_O_BB 5
M  POLY_IGNORE 9 10 11 12 13 14 15 16 17 18 
M  POLY_UPPER 6
M  POLY_LOWER 8
M  POLY_CHG 0
M  POLY_PROPERTIES ALPHA_AA L_AA PROTEIN AROMATIC POLYMER 
M  END

$$$$



 32 32  0  0  0  0  0  0  0  0999 V2000
   -3.0525    1.5382    1.4277 H   0  0  0  1  0  0  0  0  0  0  0  0
   -1.4324    0.2969    1.9105 C   0  0  0  1  0  0  0  0  0  0  0  0
   -2.5046    1.9703    3.3551 N   0  0  0  1  0  0  0  0  0  0  0  0
   -2.1444    1.6393    1.9846 C   0  0  0  1  0  0  0  0  0  0  0  0
   -0.5488   -0.0021    2.7122 O   0  0  0  1  0  0  0  0  0  0  0  0
   -1.8321   -0.5216    0.9243 N   0  0  0  1  0  0  0  0  0  0  0  0
   -2.0762    2.7404    3.7839 H   0  0  0  1  0  0  0  0  0  0  0  0
   -3.3991    1.2609    4.0492 C   0  0  0  1  0  0  0  0  0  0  0  0
   -1.2731   -1.8382    0.6564 C   0  0  0  1  0  0  0  0  0  0  0  0
   -3.7211    1.7830    5.4359 C   0  0  0  1  0  0  0  0  0  0  0  0
   -3.9373    0.2467    3.6081 O   0  0  0  1  0  0  0  0  0  0  0  0
   -2.5548   -0.2089    0.3409 H   0  0  0  1  0  0  0  0  0  0  0  0
   -0.2479   -1.8599    0.9620 H   0  0  0  1  0  0  0  0  0  0  0  0
   -1.3372   -2.0462   -0.3912 H   0  0  0  1  0  0  0  0  0  0  0  0
   -1.8232   -2.5766    1.2015 H   0  0  0  1  0  0  0  0  0  0  0  0
   -3.5732    2.8424    5.4619 H   0  0  0  1  0  0  0  0  0  0  0  0
   -3.0771    1.3156    6.1512 H   0  0  0  1  0  0  0  0  0  0  0  0
   -4.7403    1.5595    5.6731 H   0  0  0  1  0  0  0  0  0  0  0  0
   -4.4087    8.2290    0.3225 I   0  0  0  1  0  0  0  0  0  0  0  0
   -3.4086    6.4331    0.7004 C   0  0  0  1  0  0  0  0  0  0  0  0
   -2.5583    6.2725    1.7833 C   0  0  0  1  0  0  0  0  0  0  0  0
   -1.9168    5.0652    1.9853 C   0  0  0  1  0  0  0  0  0  0  0  0
   -2.1278    4.0130    1.1078 C   0  0  0  1  0  0  0  0  0  0  0  0
   -2.9756    4.1729    0.0280 C   0  0  0  1  0  0  0  0  0  0  0  0
   -3.6190    5.3840   -0.1745 C   0  0  0  1  0  0  0  0  0  0  0  0
   -1.3376    2.7420    1.3117 C   0  0  0  1  0  0  0  0  0  0  0  0
   -2.4031    7.0607    2.4438 H   0  0  0  1  0  0  0  0  0  0  0  0
   -1.2757    4.9461    2.7955 H   0  0  0  1  0  0  0  0  0  0  0  0
   -3.1308    3.3847   -0.6325 H   0  0  0  1  0  0  0  0  0  0  0  0
   -4.2601    5.5031   -0.9847 H   0  0  0  1  0  0  0  0  0  0  0  0
   -1.0083    2.3889    0.3568 H   0  0  0  1  0  0  0  0  0  0  0  0
   -0.4878    2.9637    1.9230 H   0  0  0  1  0  0  0  0  0  0  0  0
  1  4  1  0  0  0  0
  2  4  1  0  0  0  0
  2  5  2  0  0  0  0
  2  6  1  0  0  0  0
  3  4  1  0  0  0  0
  3  7  1  0  0  0  0
  3  8  1  0  0  0  0
  4 26  1  0  0  0  0
  6  9  1  0  0  0  0
  6 12  1  0  0  0  0
  8 10  1  0  0  0  0
  8 11  2  0  0  0  0
  9 13  1  0  0  0  0
  9 14  1  0  0  0  0
  9 15  1  0  0  0  0
 10 16  1  0  0  0  0
 10 17  1  0  0  0  0
 10 18  1  0  0  0  0
 19 20  1  0  0  0  0
 20 21  4  0  0  0  0
 20 25  4  0  0  0  0
 21 22  4  0  0  0  0
 21 27  1  0  0  0  0
 22 23  4  0  0  0  0
 22 28  1  0  0  0  0
 23 24  4  0  0  0  0
 23 26  1  0  0  0  0
 24 25  4  0  0  0  0
 24 29  1  0  0  0  0
 25 30  1  0  0  0  0
 26 31  1  0  0  0  0
 26 32  1  0  0  0  0
M  END
> <BCLConfClusterSize>
1

> <ConfClashScore>
0 

> <ConfOneFourInteractionScore>
-0.978127 

> <ConfScore>
-0.176613 

> <ConfScorePBest>
0.00626739 

> <ConfTolerance>
0.198865 

> <RosettaParamsInstructions>
M  ROOT 3
M  POLY_N_BB 3
M  POLY_CA_BB 4
M  POLY_C_BB 2
M  POLY_O_BB 5
M  POLY_IGNORE 9 10 11 12 13 14 15 16 17 18 
M  POLY_UPPER 6
M  POLY_LOWER 8
M  POLY_CHG 0
M  POLY_PROPERTIES ALPHA_AA L_AA PROTEIN AROMATIC POLYMER 
M  END

$$$$



 32 32  0  0  0  0  0  0  0  0999 V2000
    0.5301    3.4421    0.9035 H   0  0  0  1  0  0  0  0  0  0  0  0
    0.6728    1.3635    1.2195 C   0  0  0  1  0  0  0  0  0  0  0  0
   -0.1589    2.5176   -0.8066 N   0  0  0  1  0  0  0  0  0  0  0  0
   -0.0440    2.5767    0.6462 C   0  0  0  1  0  0  0  0  0  0  0  0
    0.6863    0.2883    0.6216 O   0  0  0  1  0  0  0  0  0  0  0  0
    1.2780    1.5492    2.4033 N   0  0  0  1  0  0  0  0  0  0  0  0
   -1.0269    2.2342   -1.1625 H   0  0  0  1  0  0  0  0  0  0  0  0
    0.7941    2.8086   -1.7162 C   0  0  0  1  0  0  0  0  0  0  0  0
    1.9286    0.5041    3.1794 C   0  0  0  1  0  0  0  0  0  0  0  0
    0.4337    2.7060   -3.1810 C   0  0  0  1  0  0  0  0  0  0  0  0
    1.9239    3.1478   -1.3666 O   0  0  0  1  0  0  0  0  0  0  0  0
    1.2820    2.4569    2.7726 H   0  0  0  1  0  0  0  0  0  0  0  0
    2.5550   -0.0798    2.5378 H   0  0  0  1  0  0  0  0  0  0  0  0
    1.1856   -0.1261    3.6219 H   0  0  0  1  0  0  0  0  0  0  0  0
    2.5235    0.9497    3.9491 H   0  0  0  1  0  0  0  0  0  0  0  0
    0.2409    3.6837   -3.5707 H   0  0  0  1  0  0  0  0  0  0  0  0
   -0.4408    2.0995   -3.2912 H   0  0  0  1  0  0  0  0  0  0  0  0
    1.2461    2.2623   -3.7177 H   0  0  0  1  0  0  0  0  0  0  0  0
   -4.4032    8.2433    0.3789 I   0  0  0  1  0  0  0  0  0  0  0  0
   -3.4175    6.4271    0.6918 C   0  0  0  1  0  0  0  0  0  0  0  0
   -2.5641    6.2783    1.7740 C   0  0  0  1  0  0  0  0  0  0  0  0
   -1.9084    5.0788    1.9774 C   0  0  0  1  0  0  0  0  0  0  0  0
   -2.1083    4.0227    1.1021 C   0  0  0  1  0  0  0  0  0  0  0  0
   -2.9591    4.1708    0.0229 C   0  0  0  1  0  0  0  0  0  0  0  0
   -3.6167    5.3740   -0.1809 C   0  0  0  1  0  0  0  0  0  0  0  0
   -1.3965    2.7096    1.3270 C   0  0  0  1  0  0  0  0  0  0  0  0
   -2.4173    7.0693    2.4330 H   0  0  0  1  0  0  0  0  0  0  0  0
   -1.2651    4.9685    2.7871 H   0  0  0  1  0  0  0  0  0  0  0  0
   -3.1058    3.3797   -0.6360 H   0  0  0  1  0  0  0  0  0  0  0  0
   -4.2600    5.4843   -0.9906 H   0  0  0  1  0  0  0  0  0  0  0  0
   -1.2491    2.5902    2.3800 H   0  0  0  1  0  0  0  0  0  0  0  0
   -2.0275    1.9256    0.9635 H   0  0  0  1  0  0  0  0  0  0  0  0
  1  4  1  0  0  0  0
  2  4  1  0  0  0  0
  2  5  2  0  0  0  0
  2  6  1  0  0  0  0
  3  4  1  0  0  0  0
  3  7  1  0  0  0  0
  3  8  1  0  0  0  0
  4 26  1  0  0  0  0
  6  9  1  0  0  0  0
  6 12  1  0  0  0  0
  8 10  1  0  0  0  0
  8 11  2  0  0  0  0
  9 13  1  0  0  0  0
  9 14  1  0  0  0  0
  9 15  1  0  0  0  0
 10 16  1  0  0  0  0
 10 17  1  0  0  0  0
 10 18  1  0  0  0  0
 19 20  1  0  0  0  0
 20 21  4  0  0  0  0
 20 25  4  0  0  0  0
 21 22  4  0  0  0  0
 21 27  1  0  0  0  0
 22 23  4  0  0  0  0
 22 28  1  0  0  0  0
 23 24  4  0  0  0  0
 23 26  1  0  0  0  0
 24 25  4  0  0  0  0
 24 29  1  0  0  0  0
 25 30  1  0  0  0  0
 26 31  1  0  0  0  0
 26 32  1  0  0  0  0
M  END
> <BCLConfClusterSize>
1

> <ConfClashScore>
0 

> <ConfOneFourInteractionScore>
-0.985807 

> <ConfScore>
-0.176552 

> <ConfScorePBest>
0.00623891 

> <ConfTolerance>
0.246726 

> <RosettaParamsInstructions>
M  ROOT 3
M  POLY_N_BB 3
M  POLY_CA_BB 4
M  POLY_C_BB 2
M  POLY_O_BB 5
M  POLY_IGNORE 9 10 11 12 13 14 15 16 17 18 
M  POLY_UPPER 6
M  POLY_LOWER 8
M  POLY_CHG 0
M  POLY_PROPERTIES ALPHA_AA L_AA PROTEIN AROMATIC POLYMER 
M  END

$$$$



 32 32  0  0  0  0  0  0  0  0999 V2000
   -2.9564    1.2962    1.3771 H   0  0  0  1  0  0  0  0  0  0  0  0
   -1.3291    0.5648    2.5415 C   0  0  0  1  0  0  0  0  0  0  0  0
   -2.9078    2.2610    3.2248 N   0  0  0  1  0  0  0  0  0  0  0  0
   -2.2382    1.6865    2.0675 C   0  0  0  1  0  0  0  0  0  0  0  0
   -1.0008    0.4763    3.7216 O   0  0  0  1  0  0  0  0  0  0  0  0
   -0.8999   -0.3184    1.6387 N   0  0  0  1  0  0  0  0  0  0  0  0
   -2.8684    3.2307    3.3610 H   0  0  0  1  0  0  0  0  0  0  0  0
   -3.5810    1.5050    4.1168 C   0  0  0  1  0  0  0  0  0  0  0  0
   -0.0067   -1.4319    1.9218 C   0  0  0  1  0  0  0  0  0  0  0  0
   -4.1692    2.1924    5.3336 C   0  0  0  1  0  0  0  0  0  0  0  0
   -3.7151    0.2935    3.9500 O   0  0  0  1  0  0  0  0  0  0  0  0
   -1.2094   -0.2092    0.7153 H   0  0  0  1  0  0  0  0  0  0  0  0
    0.9334   -1.0565    2.2685 H   0  0  0  1  0  0  0  0  0  0  0  0
    0.1448   -2.0030    1.0297 H   0  0  0  1  0  0  0  0  0  0  0  0
   -0.4415   -2.0550    2.6752 H   0  0  0  1  0  0  0  0  0  0  0  0
   -3.3854    2.4351    6.0204 H   0  0  0  1  0  0  0  0  0  0  0  0
   -4.8696    1.5379    5.8089 H   0  0  0  1  0  0  0  0  0  0  0  0
   -4.6676    3.0893    5.0302 H   0  0  0  1  0  0  0  0  0  0  0  0
   -4.4007    8.2454    0.3836 I   0  0  0  1  0  0  0  0  0  0  0  0
   -3.4178    6.4267    0.6912 C   0  0  0  1  0  0  0  0  0  0  0  0
   -2.5636    6.2739    1.7722 C   0  0  0  1  0  0  0  0  0  0  0  0
   -1.9097    5.0728    1.9721 C   0  0  0  1  0  0  0  0  0  0  0  0
   -2.1123    4.0191    1.0945 C   0  0  0  1  0  0  0  0  0  0  0  0
   -2.9639    4.1713    0.0166 C   0  0  0  1  0  0  0  0  0  0  0  0
   -3.6196    5.3760   -0.1838 C   0  0  0  1  0  0  0  0  0  0  0  0
   -1.3776    2.7270    1.3628 C   0  0  0  1  0  0  0  0  0  0  0  0
   -2.4148    7.0632    2.4329 H   0  0  0  1  0  0  0  0  0  0  0  0
   -1.2658    4.9596    2.7809 H   0  0  0  1  0  0  0  0  0  0  0  0
   -3.1127    3.3820   -0.6441 H   0  0  0  1  0  0  0  0  0  0  0  0
   -4.2635    5.4893   -0.9926 H   0  0  0  1  0  0  0  0  0  0  0  0
   -1.0495    2.3215    0.4285 H   0  0  0  1  0  0  0  0  0  0  0  0
   -0.5282    2.9395    1.9778 H   0  0  0  1  0  0  0  0  0  0  0  0
  1  4  1  0  0  0  0
  2  4  1  0  0  0  0
  2  5  2  0  0  0  0
  2  6  1  0  0  0  0
  3  4  1  0  0  0  0
  3  7  1  0  0  0  0
  3  8  1  0  0  0  0
  4 26  1  0  0  0  0
  6  9  1  0  0  0  0
  6 12  1  0  0  0  0
  8 10  1  0  0  0  0
  8 11  2  0  0  0  0
  9 13  1  0  0  0  0
  9 14  1  0  0  0  0
  9 15  1  0  0  0  0
 10 16  1  0  0  0  0
 10 17  1  0  0  0  0
 10 18  1  0  0  0  0
 19 20  1  0  0  0  0
 20 21  4  0  0  0  0
 20 25  4  0  0  0  0
 21 22  4  0  0  0  0
 21 27  1  0  0  0  0
 22 23  4  0  0  0  0
 22 28  1  0  0  0  0
 23 24  4  0  0  0  0
 23 26  1  0  0  0  0
 24 25  4  0  0  0  0
 24 29  1  0  0  0  0
 25 30  1  0  0  0  0
 26 31  1  0  0  0  0
 26 32  1  0  0  0  0
M  END
> <BCLConfClusterSize>
1

> <ConfClashScore>
0 

> <ConfOneFourInteractionScore>
-0.987695 

> <ConfScore>
-0.17441 

> <ConfScorePBest>
0.00621043 

> <ConfTolerance>
0.312948 

> <RosettaParamsInstructions>
M  ROOT 3
M  POLY_N_BB 3
M  POLY_CA_BB 4
M  POLY_C_BB 2
M  POLY_O_BB 5
M  POLY_IGNORE 9 10 11 12 13 14 15 16 17 18 
M  POLY_UPPER 6
M  POLY_LOWER 8
M  POLY_CHG 0
M  POLY_PROPERTIES ALPHA_AA L_AA PROTEIN AROMATIC POLYMER 
M  END

$$$$



 32 32  0  0  0  0  0  0  0  0999 V2000
    0.4482    3.4710    1.8857 H   0  0  0  1  0  0  0  0  0  0  0  0
    0.8084    1.4704    1.3876 C   0  0  0  1  0  0  0  0  0  0  0  0
    0.4801    3.4071   -0.1551 N   0  0  0  1  0  0  0  0  0  0  0  0
    0.1165    2.8033    1.1182 C   0  0  0  1  0  0  0  0  0  0  0  0
    1.2362    0.7771    0.4686 O   0  0  0  1  0  0  0  0  0  0  0  0
    0.9126    1.1199    2.6727 N   0  0  0  1  0  0  0  0  0  0  0  0
    0.2067    2.9626   -0.9845 H   0  0  0  1  0  0  0  0  0  0  0  0
    1.1738    4.5463   -0.2324 C   0  0  0  1  0  0  0  0  0  0  0  0
    1.5838   -0.0767    3.1581 C   0  0  0  1  0  0  0  0  0  0  0  0
    1.4377    5.0630   -1.6334 C   0  0  0  1  0  0  0  0  0  0  0  0
    1.5806    5.1516    0.7584 O   0  0  0  1  0  0  0  0  0  0  0  0
    0.5063    1.7132    3.3385 H   0  0  0  1  0  0  0  0  0  0  0  0
    2.4441   -0.2739    2.5532 H   0  0  0  1  0  0  0  0  0  0  0  0
    0.9125   -0.9082    3.1050 H   0  0  0  1  0  0  0  0  0  0  0  0
    1.8882    0.0724    4.1730 H   0  0  0  1  0  0  0  0  0  0  0  0
    2.0069    4.3400   -2.1794 H   0  0  0  1  0  0  0  0  0  0  0  0
    1.9861    5.9801   -1.5776 H   0  0  0  1  0  0  0  0  0  0  0  0
    0.5063    5.2336   -2.1317 H   0  0  0  1  0  0  0  0  0  0  0  0
   -4.3572    8.2545    0.3181 I   0  0  0  1  0  0  0  0  0  0  0  0
   -3.4381    6.4195    0.7128 C   0  0  0  1  0  0  0  0  0  0  0  0
   -2.5778    6.2759    1.7902 C   0  0  0  1  0  0  0  0  0  0  0  0
   -1.9062    5.0837    1.9845 C   0  0  0  1  0  0  0  0  0  0  0  0
   -2.0970    4.0296    1.1048 C   0  0  0  1  0  0  0  0  0  0  0  0
   -2.9548    4.1725    0.0305 C   0  0  0  1  0  0  0  0  0  0  0  0
   -3.6283    5.3683   -0.1642 C   0  0  0  1  0  0  0  0  0  0  0  0
   -1.3957    2.7019    1.2689 C   0  0  0  1  0  0  0  0  0  0  0  0
   -2.4376    7.0655    2.4525 H   0  0  0  1  0  0  0  0  0  0  0  0
   -1.2577    4.9775    2.7906 H   0  0  0  1  0  0  0  0  0  0  0  0
   -3.0949    3.3829   -0.6318 H   0  0  0  1  0  0  0  0  0  0  0  0
   -4.2768    5.4746   -0.9703 H   0  0  0  1  0  0  0  0  0  0  0  0
   -1.6159    2.3186    2.2433 H   0  0  0  1  0  0  0  0  0  0  0  0
   -1.7674    2.0264    0.5270 H   0  0  0  1  0  0  0  0  0  0  0  0
  1  4  1  0  0  0  0
  2  4  1  0  0  0  0
  2  5  2  0  0  0  0
  2  6  1  0  0  0  0
  3  4  1  0  0  0  0
  3  7  1  0  0  0  0
  3  8  1  0  0  0  0
  4 26  1  0  0  0  0
  6  9  1  0  0  0  0
  6 12  1  0  0  0  0
  8 10  1  0  0  0  0
  8 11  2  0  0  0  0
  9 13  1  0  0  0  0
  9 14  1  0  0  0  0
  9 15  1  0  0  0  0
 10 16  1  0  0  0  0
 10 17  1  0  0  0  0
 10 18  1  0  0  0  0
 19 20  1  0  0  0  0
 20 21  4  0  0  0  0
 20 25  4  0  0  0  0
 21 22  4  0  0  0  0
 21 27  1  0  0  0  0
 22 23  4  0  0  0  0
 22 28  1  0  0  0  0
 23 24  4  0  0  0  0
 23 26  1  0  0  0  0
 24 25  4  0  0  0  0
 24 29  1  0  0  0  0
 25 30  1  0  0  0  0
 26 31  1  0  0  0  0
 26 32  1  0  0  0  0
M  END
> <BCLConfClusterSize>
1

> <ConfClashScore>
0 

> <ConfOneFourInteractionScore>
-0.985807 

> <ConfScore>
-0.174198 

> <ConfScorePBest>
0.00618195 

> <ConfTolerance>
0.262368 

> <RosettaParamsInstructions>
M  ROOT 3
M  POLY_N_BB 3
M  POLY_CA_BB 4
M  POLY_C_BB 2
M  POLY_O_BB 5
M  POLY_IGNORE 9 10 11 12 13 14 15 16 17 18 
M  POLY_UPPER 6
M  POLY_LOWER 8
M  POLY_CHG 0
M  POLY_PROPERTIES ALPHA_AA L_AA PROTEIN AROMATIC POLYMER 
M  END

$$$$



 32 32  0  0  0  0  0  0  0  0999 V2000
   -3.2142    1.6923    1.6426 H   0  0  0  1  0  0  0  0  0  0  0  0
   -1.6480    0.3294    1.8887 C   0  0  0  1  0  0  0  0  0  0  0  0
   -2.3813    2.0382    3.4938 N   0  0  0  1  0  0  0  0  0  0  0  0
   -2.2411    1.6957    2.0876 C   0  0  0  1  0  0  0  0  0  0  0  0
   -1.3486   -0.0849    0.7563 O   0  0  0  1  0  0  0  0  0  0  0  0
   -1.4727   -0.3812    2.9801 N   0  0  0  1  0  0  0  0  0  0  0  0
   -1.6172    2.4042    3.9864 H   0  0  0  1  0  0  0  0  0  0  0  0
   -3.5544    1.8541    4.1183 C   0  0  0  1  0  0  0  0  0  0  0  0
   -0.8311   -1.6854    2.9076 C   0  0  0  1  0  0  0  0  0  0  0  0
   -3.5250    2.2198    5.5968 C   0  0  0  1  0  0  0  0  0  0  0  0
   -4.5763    1.4319    3.5787 O   0  0  0  1  0  0  0  0  0  0  0  0
   -1.7747   -0.0321    3.8446 H   0  0  0  1  0  0  0  0  0  0  0  0
   -1.4205   -2.3402    2.3004 H   0  0  0  1  0  0  0  0  0  0  0  0
   -0.7437   -2.0948    3.8923 H   0  0  0  1  0  0  0  0  0  0  0  0
    0.1427   -1.5801    2.4769 H   0  0  0  1  0  0  0  0  0  0  0  0
   -2.9856    3.1345    5.7278 H   0  0  0  1  0  0  0  0  0  0  0  0
   -3.0424    1.4395    6.1474 H   0  0  0  1  0  0  0  0  0  0  0  0
   -4.5262    2.3422    5.9537 H   0  0  0  1  0  0  0  0  0  0  0  0
   -4.4032    8.2433    0.3789 I   0  0  0  1  0  0  0  0  0  0  0  0
   -3.4175    6.4271    0.6918 C   0  0  0  1  0  0  0  0  0  0  0  0
   -2.5641    6.2783    1.7740 C   0  0  0  1  0  0  0  0  0  0  0  0
   -1.9084    5.0788    1.9774 C   0  0  0  1  0  0  0  0  0  0  0  0
   -2.1083    4.0227    1.1021 C   0  0  0  1  0  0  0  0  0  0  0  0
   -2.9591    4.1708    0.0229 C   0  0  0  1  0  0  0  0  0  0  0  0
   -3.6167    5.3740   -0.1809 C   0  0  0  1  0  0  0  0  0  0  0  0
   -1.3965    2.7096    1.3270 C   0  0  0  1  0  0  0  0  0  0  0  0
   -2.4173    7.0693    2.4330 H   0  0  0  1  0  0  0  0  0  0  0  0
   -1.2651    4.9685    2.7871 H   0  0  0  1  0  0  0  0  0  0  0  0
   -3.1058    3.3797   -0.6360 H   0  0  0  1  0  0  0  0  0  0  0  0
   -4.2600    5.4843   -0.9906 H   0  0  0  1  0  0  0  0  0  0  0  0
   -1.1403    2.2936    0.3750 H   0  0  0  1  0  0  0  0  0  0  0  0
   -0.5040    2.8975    1.8865 H   0  0  0  1  0  0  0  0  0  0  0  0
  1  4  1  0  0  0  0
  2  4  1  0  0  0  0
  2  5  2  0  0  0  0
  2  6  1  0  0  0  0
  3  4  1  0  0  0  0
  3  7  1  0  0  0  0
  3  8  1  0  0  0  0
  4 26  1  0  0  0  0
  6  9  1  0  0  0  0
  6 12  1  0  0  0  0
  8 10  1  0  0  0  0
  8 11  2  0  0  0  0
  9 13  1  0  0  0  0
  9 14  1  0  0  0  0
  9 15  1  0  0  0  0
 10 16  1  0  0  0  0
 10 17  1  0  0  0  0
 10 18  1  0  0  0  0
 19 20  1  0  0  0  0
 20 21  4  0  0  0  0
 20 25  4  0  0  0  0
 21 22  4  0  0  0  0
 21 27  1  0  0  0  0
 22 23  4  0  0  0  0
 22 28  1  0  0  0  0
 23 24  4  0  0  0  0
 23 26  1  0  0  0  0
 24 25  4  0  0  0  0
 24 29  1  0  0  0  0
 25 30  1  0  0  0  0
 26 31  1  0  0  0  0
 26 32  1  0  0  0  0
M  END
> <BCLConfClusterSize>
1

> <ConfClashScore>
0 

> <ConfOneFourInteractionScore>
-0.960318 

> <ConfScore>
-0.17027 

> <ConfScorePBest>
0.00615347 

> <ConfTolerance>
0.237226 

> <RosettaParamsInstructions>
M  ROOT 3
M  POLY_N_BB 3
M  POLY_CA_BB 4
M  POLY_C_BB 2
M  POLY_O_BB 5
M  POLY_IGNORE 9 10 11 12 13 14 15 16 17 18 
M  POLY_UPPER 6
M  POLY_LOWER 8
M  POLY_CHG 0
M  POLY_PROPERTIES ALPHA_AA L_AA PROTEIN AROMATIC POLYMER 
M  END

$$$$



 32 32  0  0  0  0  0  0  0  0999 V2000
   -1.3985    2.9050    3.4215 H   0  0  0  1  0  0  0  0  0  0  0  0
   -3.1059    1.8213    2.8412 C   0  0  0  1  0  0  0  0  0  0  0  0
   -0.7238    1.0302    2.9175 N   0  0  0  1  0  0  0  0  0  0  0  0
   -1.6257    2.1510    2.6972 C   0  0  0  1  0  0  0  0  0  0  0  0
   -3.9424    2.6953    3.0622 O   0  0  0  1  0  0  0  0  0  0  0  0
   -3.3817    0.5233    2.7052 N   0  0  0  1  0  0  0  0  0  0  0  0
   -0.1873    0.6812    2.1754 H   0  0  0  1  0  0  0  0  0  0  0  0
   -0.6249    0.4708    4.1412 C   0  0  0  1  0  0  0  0  0  0  0  0
   -4.6839   -0.0811    2.9437 C   0  0  0  1  0  0  0  0  0  0  0  0
    0.3861   -0.6362    4.3370 C   0  0  0  1  0  0  0  0  0  0  0  0
   -1.3352    0.8485    5.0720 O   0  0  0  1  0  0  0  0  0  0  0  0
   -2.6526   -0.0678    2.4236 H   0  0  0  1  0  0  0  0  0  0  0  0
   -5.4497    0.5520    2.5466 H   0  0  0  1  0  0  0  0  0  0  0  0
   -4.8328   -0.2034    3.9962 H   0  0  0  1  0  0  0  0  0  0  0  0
   -4.7268   -1.0364    2.4635 H   0  0  0  1  0  0  0  0  0  0  0  0
    0.5443   -1.1438    3.4085 H   0  0  0  1  0  0  0  0  0  0  0  0
    0.0188   -1.3298    5.0643 H   0  0  0  1  0  0  0  0  0  0  0  0
    1.3107   -0.2185    4.6769 H   0  0  0  1  0  0  0  0  0  0  0  0
   -4.3594    8.2714    0.4141 I   0  0  0  1  0  0  0  0  0  0  0  0
   -3.4202    6.4231    0.6788 C   0  0  0  1  0  0  0  0  0  0  0  0
   -2.5725    6.2754    1.7656 C   0  0  0  1  0  0  0  0  0  0  0  0
   -1.9250    5.0731    1.9787 C   0  0  0  1  0  0  0  0  0  0  0  0
   -2.1274    4.0133    1.1085 C   0  0  0  1  0  0  0  0  0  0  0  0
   -2.9726    4.1604    0.0248 C   0  0  0  1  0  0  0  0  0  0  0  0
   -3.6220    5.3663   -0.1888 C   0  0  0  1  0  0  0  0  0  0  0  0
   -1.3308    2.7482    1.3244 C   0  0  0  1  0  0  0  0  0  0  0  0
   -2.4238    7.0693    2.4206 H   0  0  0  1  0  0  0  0  0  0  0  0
   -1.2859    4.9637    2.7918 H   0  0  0  1  0  0  0  0  0  0  0  0
   -3.1213    3.3664   -0.6302 H   0  0  0  1  0  0  0  0  0  0  0  0
   -4.2611    5.4758   -1.0019 H   0  0  0  1  0  0  0  0  0  0  0  0
   -1.5910    2.0366    0.5690 H   0  0  0  1  0  0  0  0  0  0  0  0
   -0.2873    2.9750    1.2573 H   0  0  0  1  0  0  0  0  0  0  0  0
  1  4  1  0  0  0  0
  2  4  1  0  0  0  0
  2  5  2  0  0  0  0
  2  6  1  0  0  0  0
  3  4  1  0  0  0  0
  3  7  1  0  0  0  0
  3  8  1  0  0  0  0
  4 26  1  0  0  0  0
  6  9  1  0  0  0  0
  6 12  1  0  0  0  0
  8 10  1  0  0  0  0
  8 11  2  0  0  0  0
  9 13  1  0  0  0  0
  9 14  1  0  0  0  0
  9 15  1  0  0  0  0
 10 16  1  0  0  0  0
 10 17  1  0  0  0  0
 10 18  1  0  0  0  0
 19 20  1  0  0  0  0
 20 21  4  0  0  0  0
 20 25  4  0  0  0  0
 21 22  4  0  0  0  0
 21 27  1  0  0  0  0
 22 23  4  0  0  0  0
 22 28  1  0  0  0  0
 23 24  4  0  0  0  0
 23 26  1  0  0  0  0
 24 25  4  0  0  0  0
 24 29  1  0  0  0  0
 25 30  1  0  0  0  0
 26 31  1  0  0  0  0
 26 32  1  0  0  0  0
M  END
> <BCLConfClusterSize>
1

> <ConfClashScore>
0 

> <ConfOneFourInteractionScore>
-0.960318 

> <ConfScore>
-0.167083 

> <ConfScorePBest>
0.00612499 

> <ConfTolerance>
0.273444 

> <RosettaParamsInstructions>
M  ROOT 3
M  POLY_N_BB 3
M  POLY_CA_BB 4
M  POLY_C_BB 2
M  POLY_O_BB 5
M  POLY_IGNORE 9 10 11 12 13 14 15 16 17 18 
M  POLY_UPPER 6
M  POLY_LOWER 8
M  POLY_CHG 0
M  POLY_PROPERTIES ALPHA_AA L_AA PROTEIN AROMATIC POLYMER 
M  END

$$$$



 32 32  0  0  0  0  0  0  0  0999 V2000
    0.6065    3.4497    1.2428 H   0  0  0  1  0  0  0  0  0  0  0  0
    0.7175    1.3759    0.9240 C   0  0  0  1  0  0  0  0  0  0  0  0
   -0.0114    3.1029   -0.6888 N   0  0  0  1  0  0  0  0  0  0  0  0
    0.0374    2.7146    0.7129 C   0  0  0  1  0  0  0  0  0  0  0  0
    0.5546    0.4457    0.1355 O   0  0  0  1  0  0  0  0  0  0  0  0
    1.4956    1.2825    2.0139 N   0  0  0  1  0  0  0  0  0  0  0  0
   -0.8274    2.9513   -1.2100 H   0  0  0  1  0  0  0  0  0  0  0  0
    1.0537    3.6656   -1.2665 C   0  0  0  1  0  0  0  0  0  0  0  0
    2.2903    0.0980    2.3025 C   0  0  0  1  0  0  0  0  0  0  0  0
    0.8739    4.0856   -2.7124 C   0  0  0  1  0  0  0  0  0  0  0  0
    2.1205    3.8401   -0.6790 O   0  0  0  1  0  0  0  0  0  0  0  0
    1.5297    2.0382    2.6369 H   0  0  0  1  0  0  0  0  0  0  0  0
    2.2783   -0.0924    3.3553 H   0  0  0  1  0  0  0  0  0  0  0  0
    3.2982    0.2579    1.9807 H   0  0  0  1  0  0  0  0  0  0  0  0
    1.8788   -0.7424    1.7836 H   0  0  0  1  0  0  0  0  0  0  0  0
    1.0711    5.1329   -2.8073 H   0  0  0  1  0  0  0  0  0  0  0  0
   -0.1307    3.8827   -3.0201 H   0  0  0  1  0  0  0  0  0  0  0  0
    1.5542    3.5374   -3.3300 H   0  0  0  1  0  0  0  0  0  0  0  0
   -4.3546    8.2570    0.3230 I   0  0  0  1  0  0  0  0  0  0  0  0
   -3.4384    6.4193    0.7122 C   0  0  0  1  0  0  0  0  0  0  0  0
   -2.5773    6.2714    1.7883 C   0  0  0  1  0  0  0  0  0  0  0  0
   -1.9077    5.0775    1.9788 C   0  0  0  1  0  0  0  0  0  0  0  0
   -2.1014    4.0259    1.0967 C   0  0  0  1  0  0  0  0  0  0  0  0
   -2.9601    4.1731    0.0237 C   0  0  0  1  0  0  0  0  0  0  0  0
   -3.6316    5.3707   -0.1673 C   0  0  0  1  0  0  0  0  0  0  0  0
   -1.3745    2.7188    1.3076 C   0  0  0  1  0  0  0  0  0  0  0  0
   -2.4350    7.0590    2.4524 H   0  0  0  1  0  0  0  0  0  0  0  0
   -1.2585    4.9680    2.7840 H   0  0  0  1  0  0  0  0  0  0  0  0
   -3.1023    3.3854   -0.6404 H   0  0  0  1  0  0  0  0  0  0  0  0
   -4.2807    5.4802   -0.9724 H   0  0  0  1  0  0  0  0  0  0  0  0
   -1.3016    2.5355    2.3592 H   0  0  0  1  0  0  0  0  0  0  0  0
   -1.9404    1.9362    0.8469 H   0  0  0  1  0  0  0  0  0  0  0  0
  1  4  1  0  0  0  0
  2  4  1  0  0  0  0
  2  5  2  0  0  0  0
  2  6  1  0  0  0  0
  3  4  1  0  0  0  0
  3  7  1  0  0  0  0
  3  8  1  0  0  0  0
  4 26  1  0  0  0  0
  6  9  1  0  0  0  0
  6 12  1  0  0  0  0
  8 10  1  0  0  0  0
  8 11  2  0  0  0  0
  9 13  1  0  0  0  0
  9 14  1  0  0  0  0
  9 15  1  0  0  0  0
 10 16  1  0  0  0  0
 10 17  1  0  0  0  0
 10 18  1  0  0  0  0
 19 20  1  0  0  0  0
 20 21  4  0  0  0  0
 20 25  4  0  0  0  0
 21 22  4  0  0  0  0
 21 27  1  0  0  0  0
 22 23  4  0  0  0  0
 22 28  1  0  0  0  0
 23 24  4  0  0  0  0
 23 26  1  0  0  0  0
 24 25  4  0  0  0  0
 24 29  1  0  0  0  0
 25 30  1  0  0  0  0
 26 31  1  0  0  0  0
 26 32  1  0  0  0  0
M  END
> <BCLConfClusterSize>
1

> <ConfClashScore>
0 

> <ConfOneFourInteractionScore>
-0.985807 

> <ConfScore>
-0.154034 

> <ConfScorePBest>
0.00609651 

> <ConfTolerance>
0.258896 

> <RosettaParamsInstructions>
M  ROOT 3
M  POLY_N_BB 3
M  POLY_CA_BB 4
M  POLY_C_BB 2
M  POLY_O_BB 5
M  POLY_IGNORE 9 10 11 12 13 14 15 16 17 18 
M  POLY_UPPER 6
M  POLY_LOWER 8
M  POLY_CHG 0
M  POLY_PROPERTIES ALPHA_AA L_AA PROTEIN AROMATIC POLYMER 
M  END

$$$$



 32 32  0  0  0  0  0  0  0  0999 V2000
   -3.1154    1.5889    0.8533 H   0  0  0  1  0  0  0  0  0  0  0  0
   -1.6418    0.2103    1.4598 C   0  0  0  1  0  0  0  0  0  0  0  0
   -2.9775    1.7222    2.9018 N   0  0  0  1  0  0  0  0  0  0  0  0
   -2.3496    1.5534    1.5998 C   0  0  0  1  0  0  0  0  0  0  0  0
   -1.4609   -0.3044    0.3564 O   0  0  0  1  0  0  0  0  0  0  0  0
   -1.2392   -0.3570    2.6036 N   0  0  0  1  0  0  0  0  0  0  0  0
   -2.4933    2.1760    3.6230 H   0  0  0  1  0  0  0  0  0  0  0  0
   -4.2126    1.2600    3.1160 C   0  0  0  1  0  0  0  0  0  0  0  0
   -0.6432   -1.6840    2.6456 C   0  0  0  1  0  0  0  0  0  0  0  0
   -4.7639    1.4758    4.5119 C   0  0  0  1  0  0  0  0  0  0  0  0
   -4.8743    0.6939    2.2499 O   0  0  0  1  0  0  0  0  0  0  0  0
   -1.3497    0.1386    3.4418 H   0  0  0  1  0  0  0  0  0  0  0  0
   -0.5400   -2.0608    1.6495 H   0  0  0  1  0  0  0  0  0  0  0  0
   -1.2719   -2.3394    3.2113 H   0  0  0  1  0  0  0  0  0  0  0  0
    0.3206   -1.6274    3.1068 H   0  0  0  1  0  0  0  0  0  0  0  0
   -4.2756    0.8128    5.1952 H   0  0  0  1  0  0  0  0  0  0  0  0
   -5.8156    1.2788    4.5142 H   0  0  0  1  0  0  0  0  0  0  0  0
   -4.5895    2.4881    4.8114 H   0  0  0  1  0  0  0  0  0  0  0  0
   -4.4032    8.2433    0.3789 I   0  0  0  1  0  0  0  0  0  0  0  0
   -3.4175    6.4271    0.6918 C   0  0  0  1  0  0  0  0  0  0  0  0
   -2.5641    6.2783    1.7740 C   0  0  0  1  0  0  0  0  0  0  0  0
   -1.9084    5.0788    1.9774 C   0  0  0  1  0  0  0  0  0  0  0  0
   -2.1083    4.0227    1.1021 C   0  0  0  1  0  0  0  0  0  0  0  0
   -2.9591    4.1708    0.0229 C   0  0  0  1  0  0  0  0  0  0  0  0
   -3.6167    5.3740   -0.1809 C   0  0  0  1  0  0  0  0  0  0  0  0
   -1.3965    2.7096    1.3270 C   0  0  0  1  0  0  0  0  0  0  0  0
   -2.4173    7.0693    2.4330 H   0  0  0  1  0  0  0  0  0  0  0  0
   -1.2651    4.9685    2.7871 H   0  0  0  1  0  0  0  0  0  0  0  0
   -3.1058    3.3797   -0.6360 H   0  0  0  1  0  0  0  0  0  0  0  0
   -4.2600    5.4843   -0.9906 H   0  0  0  1  0  0  0  0  0  0  0  0
   -0.8228    2.4792    0.4537 H   0  0  0  1  0  0  0  0  0  0  0  0
   -0.7417    2.8165    2.1665 H   0  0  0  1  0  0  0  0  0  0  0  0
  1  4  1  0  0  0  0
  2  4  1  0  0  0  0
  2  5  2  0  0  0  0
  2  6  1  0  0  0  0
  3  4  1  0  0  0  0
  3  7  1  0  0  0  0
  3  8  1  0  0  0  0
  4 26  1  0  0  0  0
  6  9  1  0  0  0  0
  6 12  1  0  0  0  0
  8 10  1  0  0  0  0
  8 11  2  0  0  0  0
  9 13  1  0  0  0  0
  9 14  1  0  0  0  0
  9 15  1  0  0  0  0
 10 16  1  0  0  0  0
 10 17  1  0  0  0  0
 10 18  1  0  0  0  0
 19 20  1  0  0  0  0
 20 21  4  0  0  0  0
 20 25  4  0  0  0  0
 21 22  4  0  0  0  0
 21 27  1  0  0  0  0
 22 23  4  0  0  0  0
 22 28  1  0  0  0  0
 23 24  4  0  0  0  0
 23 26  1  0  0  0  0
 24 25  4  0  0  0  0
 24 29  1  0  0  0  0
 25 30  1  0  0  0  0
 26 31  1  0  0  0  0
 26 32  1  0  0  0  0
M  END
> <BCLConfClusterSize>
1

> <ConfClashScore>
0 

> <ConfOneFourInteractionScore>
-0.960318 

> <ConfScore>
-0.151182 

> <ConfScorePBest>
0.00606803 

> <ConfTolerance>
0.261652 

> <RosettaParamsInstructions>
M  ROOT 3
M  POLY_N_BB 3
M  POLY_CA_BB 4
M  POLY_C_BB 2
M  POLY_O_BB 5
M  POLY_IGNORE 9 10 11 12 13 14 15 16 17 18 
M  POLY_UPPER 6
M  POLY_LOWER 8
M  POLY_CHG 0
M  POLY_PROPERTIES ALPHA_AA L_AA PROTEIN AROMATIC POLYMER 
M  END

$$$$



 32 32  0  0  0  0  0  0  0  0999 V2000
    0.5319    3.5062    1.0786 H   0  0  0  1  0  0  0  0  0  0  0  0
    0.7054    1.3939    1.1249 C   0  0  0  1  0  0  0  0  0  0  0  0
   -0.0317    2.6973   -0.7492 N   0  0  0  1  0  0  0  0  0  0  0  0
   -0.0108    2.6629    0.7056 C   0  0  0  1  0  0  0  0  0  0  0  0
    0.7340    0.4116    0.3847 O   0  0  0  1  0  0  0  0  0  0  0  0
    1.3056    1.3753    2.3255 N   0  0  0  1  0  0  0  0  0  0  0  0
   -0.8888    2.8246   -1.2070 H   0  0  0  1  0  0  0  0  0  0  0  0
    1.0862    2.5603   -1.4885 C   0  0  0  1  0  0  0  0  0  0  0  0
    2.0222    0.1876    2.7658 C   0  0  0  1  0  0  0  0  0  0  0  0
    0.8434    2.6485   -2.9826 C   0  0  0  1  0  0  0  0  0  0  0  0
    2.2107    2.3800   -1.0285 O   0  0  0  1  0  0  0  0  0  0  0  0
    1.2612    2.1631    2.9067 H   0  0  0  1  0  0  0  0  0  0  0  0
    2.9122    0.0711    2.1835 H   0  0  0  1  0  0  0  0  0  0  0  0
    1.3983   -0.6724    2.6394 H   0  0  0  1  0  0  0  0  0  0  0  0
    2.2829    0.2911    3.7984 H   0  0  0  1  0  0  0  0  0  0  0  0
    1.1549    1.7375   -3.4495 H   0  0  0  1  0  0  0  0  0  0  0  0
    1.4032    3.4658   -3.3870 H   0  0  0  1  0  0  0  0  0  0  0  0
   -0.1992    2.8044   -3.1657 H   0  0  0  1  0  0  0  0  0  0  0  0
   -4.4059    8.2409    0.3740 I   0  0  0  1  0  0  0  0  0  0  0  0
   -3.4171    6.4273    0.6924 C   0  0  0  1  0  0  0  0  0  0  0  0
   -2.5646    6.2828    1.7759 C   0  0  0  1  0  0  0  0  0  0  0  0
   -1.9069    5.0850    1.9830 C   0  0  0  1  0  0  0  0  0  0  0  0
   -2.1039    4.0264    1.1101 C   0  0  0  1  0  0  0  0  0  0  0  0
   -2.9538    4.1702    0.0297 C   0  0  0  1  0  0  0  0  0  0  0  0
   -3.6134    5.3716   -0.1778 C   0  0  0  1  0  0  0  0  0  0  0  0
   -1.4177    2.6926    1.2883 C   0  0  0  1  0  0  0  0  0  0  0  0
   -2.4200    7.0758    2.4331 H   0  0  0  1  0  0  0  0  0  0  0  0
   -1.2643    4.9780    2.7937 H   0  0  0  1  0  0  0  0  0  0  0  0
   -3.0984    3.3772   -0.6274 H   0  0  0  1  0  0  0  0  0  0  0  0
   -4.2560    5.4787   -0.9885 H   0  0  0  1  0  0  0  0  0  0  0  0
   -1.3575    2.4777    2.3348 H   0  0  0  1  0  0  0  0  0  0  0  0
   -2.0035    1.9406    0.8024 H   0  0  0  1  0  0  0  0  0  0  0  0
  1  4  1  0  0  0  0
  2  4  1  0  0  0  0
  2  5  2  0  0  0  0
  2  6  1  0  0  0  0
  3  4  1  0  0  0  0
  3  7  1  0  0  0  0
  3  8  1  0  0  0  0
  4 26  1  0  0  0  0
  6  9  1  0  0  0  0
  6 12  1  0  0  0  0
  8 10  1  0  0  0  0
  8 11  2  0  0  0  0
  9 13  1  0  0  0  0
  9 14  1  0  0  0  0
  9 15  1  0  0  0  0
 10 16  1  0  0  0  0
 10 17  1  0  0  0  0
 10 18  1  0  0  0  0
 19 20  1  0  0  0  0
 20 21  4  0  0  0  0
 20 25  4  0  0  0  0
 21 22  4  0  0  0  0
 21 27  1  0  0  0  0
 22 23  4  0  0  0  0
 22 28  1  0  0  0  0
 23 24  4  0  0  0  0
 23 26  1  0  0  0  0
 24 25  4  0  0  0  0
 24 29  1  0  0  0  0
 25 30  1  0  0  0  0
 26 31  1  0  0  0  0
 26 32  1  0  0  0  0
M  END
> <BCLConfClusterSize>
1

> <ConfClashScore>
0 

> <ConfOneFourInteractionScore>
-0.985807 

> <ConfScore>
-0.14854 

> <ConfScorePBest>
0.00603955 

> <ConfTolerance>
0.298037 

> <RosettaParamsInstructions>
M  ROOT 3
M  POLY_N_BB 3
M  POLY_CA_BB 4
M  POLY_C_BB 2
M  POLY_O_BB 5
M  POLY_IGNORE 9 10 11 12 13 14 15 16 17 18 
M  POLY_UPPER 6
M  POLY_LOWER 8
M  POLY_CHG 0
M  POLY_PROPERTIES ALPHA_AA L_AA PROTEIN AROMATIC POLYMER 
M  END

$$$$



 32 32  0  0  0  0  0  0  0  0999 V2000
    0.5648    3.4137    0.9316 H   0  0  0  1  0  0  0  0  0  0  0  0
    0.6601    1.3528    0.5657 C   0  0  0  1  0  0  0  0  0  0  0  0
   -0.2789    3.0557   -0.9049 N   0  0  0  1  0  0  0  0  0  0  0  0
   -0.0845    2.6817    0.4986 C   0  0  0  1  0  0  0  0  0  0  0  0
    0.1076    0.2950    0.2641 O   0  0  0  1  0  0  0  0  0  0  0  0
    1.9322    1.4200    0.9684 N   0  0  0  1  0  0  0  0  0  0  0  0
   -1.0006    2.6597   -1.4367 H   0  0  0  1  0  0  0  0  0  0  0  0
    0.5558    3.9519   -1.4389 C   0  0  0  1  0  0  0  0  0  0  0  0
    2.8416    0.2867    1.0489 C   0  0  0  1  0  0  0  0  0  0  0  0
    0.2340    4.3902   -2.8544 C   0  0  0  1  0  0  0  0  0  0  0  0
    1.5267    4.4031   -0.8371 O   0  0  0  1  0  0  0  0  0  0  0  0
    2.2791    2.2987    1.2293 H   0  0  0  1  0  0  0  0  0  0  0  0
    3.8404    0.6154    0.8509 H   0  0  0  1  0  0  0  0  0  0  0  0
    2.5587   -0.4494    0.3258 H   0  0  0  1  0  0  0  0  0  0  0  0
    2.7944   -0.1392    2.0294 H   0  0  0  1  0  0  0  0  0  0  0  0
    0.0344    5.4413   -2.8661 H   0  0  0  1  0  0  0  0  0  0  0  0
   -0.6268    3.8600   -3.2047 H   0  0  0  1  0  0  0  0  0  0  0  0
    1.0674    4.1785   -3.4912 H   0  0  0  1  0  0  0  0  0  0  0  0
   -4.3546    8.2570    0.3230 I   0  0  0  1  0  0  0  0  0  0  0  0
   -3.4384    6.4193    0.7122 C   0  0  0  1  0  0  0  0  0  0  0  0
   -2.5773    6.2714    1.7883 C   0  0  0  1  0  0  0  0  0  0  0  0
   -1.9077    5.0775    1.9788 C   0  0  0  1  0  0  0  0  0  0  0  0
   -2.1014    4.0259    1.0967 C   0  0  0  1  0  0  0  0  0  0  0  0
   -2.9601    4.1731    0.0237 C   0  0  0  1  0  0  0  0  0  0  0  0
   -3.6316    5.3707   -0.1673 C   0  0  0  1  0  0  0  0  0  0  0  0
   -1.3745    2.7188    1.3076 C   0  0  0  1  0  0  0  0  0  0  0  0
   -2.4350    7.0590    2.4524 H   0  0  0  1  0  0  0  0  0  0  0  0
   -1.2585    4.9680    2.7840 H   0  0  0  1  0  0  0  0  0  0  0  0
   -3.1023    3.3854   -0.6404 H   0  0  0  1  0  0  0  0  0  0  0  0
   -4.2807    5.4802   -0.9724 H   0  0  0  1  0  0  0  0  0  0  0  0
   -1.1405    2.6111    2.3461 H   0  0  0  1  0  0  0  0  0  0  0  0
   -2.0059    1.9123    0.9982 H   0  0  0  1  0  0  0  0  0  0  0  0
  1  4  1  0  0  0  0
  2  4  1  0  0  0  0
  2  5  2  0  0  0  0
  2  6  1  0  0  0  0
  3  4  1  0  0  0  0
  3  7  1  0  0  0  0
  3  8  1  0  0  0  0
  4 26  1  0  0  0  0
  6  9  1  0  0  0  0
  6 12  1  0  0  0  0
  8 10  1  0  0  0  0
  8 11  2  0  0  0  0
  9 13  1  0  0  0  0
  9 14  1  0  0  0  0
  9 15  1  0  0  0  0
 10 16  1  0  0  0  0
 10 17  1  0  0  0  0
 10 18  1  0  0  0  0
 19 20  1  0  0  0  0
 20 21  4  0  0  0  0
 20 25  4  0  0  0  0
 21 22  4  0  0  0  0
 21 27  1  0  0  0  0
 22 23  4  0  0  0  0
 22 28  1  0  0  0  0
 23 24  4  0  0  0  0
 23 26  1  0  0  0  0
 24 25  4  0  0  0  0
 24 29  1  0  0  0  0
 25 30  1  0  0  0  0
 26 31  1  0  0  0  0
 26 32  1  0  0  0  0
M  END
> <BCLConfClusterSize>
1

> <ConfClashScore>
0 

> <ConfOneFourInteractionScore>
-0.985807 

> <ConfScore>
-0.146465 

> <ConfScorePBest>
0.00601107 

> <ConfTolerance>
0.312842 

> <RosettaParamsInstructions>
M  ROOT 3
M  POLY_N_BB 3
M  POLY_CA_BB 4
M  POLY_C_BB 2
M  POLY_O_BB 5
M  POLY_IGNORE 9 10 11 12 13 14 15 16 17 18 
M  POLY_UPPER 6
M  POLY_LOWER 8
M  POLY_CHG 0
M  POLY_PROPERTIES ALPHA_AA L_AA PROTEIN AROMATIC POLYMER 
M  END

$$$$



 32 32  0  0  0  0  0  0  0  0999 V2000
   -1.5881    2.1191   -0.7024 H   0  0  0  1  0  0  0  0  0  0  0  0
   -0.7606    0.4898    0.3544 C   0  0  0  1  0  0  0  0  0  0  0  0
   -3.0916    1.1988    0.3781 N   0  0  0  1  0  0  0  0  0  0  0  0
   -1.7174    1.6620    0.2564 C   0  0  0  1  0  0  0  0  0  0  0  0
    0.2700    0.4489   -0.2982 O   0  0  0  1  0  0  0  0  0  0  0  0
   -1.1615   -0.4639    1.2099 N   0  0  0  1  0  0  0  0  0  0  0  0
   -3.5857    1.3949    1.2014 H   0  0  0  1  0  0  0  0  0  0  0  0
   -3.7092    0.5089   -0.6032 C   0  0  0  1  0  0  0  0  0  0  0  0
   -0.4086   -1.7037    1.3272 C   0  0  0  1  0  0  0  0  0  0  0  0
   -5.1331    0.0467   -0.3621 C   0  0  0  1  0  0  0  0  0  0  0  0
   -3.1361    0.2608   -1.6632 O   0  0  0  1  0  0  0  0  0  0  0  0
   -1.9629   -0.3249    1.7565 H   0  0  0  1  0  0  0  0  0  0  0  0
    0.6193   -1.5210    1.0928 H   0  0  0  1  0  0  0  0  0  0  0  0
   -0.8061   -2.4278    0.6471 H   0  0  0  1  0  0  0  0  0  0  0  0
   -0.4855   -2.0740    2.3282 H   0  0  0  1  0  0  0  0  0  0  0  0
   -5.2661   -0.1739    0.6764 H   0  0  0  1  0  0  0  0  0  0  0  0
   -5.3251   -0.8327   -0.9407 H   0  0  0  1  0  0  0  0  0  0  0  0
   -5.8129    0.8204   -0.6521 H   0  0  0  1  0  0  0  0  0  0  0  0
   -4.4032    8.2433    0.3789 I   0  0  0  1  0  0  0  0  0  0  0  0
   -3.4175    6.4271    0.6918 C   0  0  0  1  0  0  0  0  0  0  0  0
   -2.5641    6.2783    1.7740 C   0  0  0  1  0  0  0  0  0  0  0  0
   -1.9084    5.0788    1.9774 C   0  0  0  1  0  0  0  0  0  0  0  0
   -2.1083    4.0227    1.1021 C   0  0  0  1  0  0  0  0  0  0  0  0
   -2.9591    4.1708    0.0229 C   0  0  0  1  0  0  0  0  0  0  0  0
   -3.6167    5.3740   -0.1809 C   0  0  0  1  0  0  0  0  0  0  0  0
   -1.3965    2.7096    1.3270 C   0  0  0  1  0  0  0  0  0  0  0  0
   -2.4173    7.0693    2.4330 H   0  0  0  1  0  0  0  0  0  0  0  0
   -1.2651    4.9685    2.7871 H   0  0  0  1  0  0  0  0  0  0  0  0
   -3.1058    3.3797   -0.6360 H   0  0  0  1  0  0  0  0  0  0  0  0
   -4.2600    5.4843   -0.9906 H   0  0  0  1  0  0  0  0  0  0  0  0
   -0.3416    2.8889    1.3227 H   0  0  0  1  0  0  0  0  0  0  0  0
   -1.6891    2.3226    2.2807 H   0  0  0  1  0  0  0  0  0  0  0  0
  1  4  1  0  0  0  0
  2  4  1  0  0  0  0
  2  5  2  0  0  0  0
  2  6  1  0  0  0  0
  3  4  1  0  0  0  0
  3  7  1  0  0  0  0
  3  8  1  0  0  0  0
  4 26  1  0  0  0  0
  6  9  1  0  0  0  0
  6 12  1  0  0  0  0
  8 10  1  0  0  0  0
  8 11  2  0  0  0  0
  9 13  1  0  0  0  0
  9 14  1  0  0  0  0
  9 15  1  0  0  0  0
 10 16  1  0  0  0  0
 10 17  1  0  0  0  0
 10 18  1  0  0  0  0
 19 20  1  0  0  0  0
 20 21  4  0  0  0  0
 20 25  4  0  0  0  0
 21 22  4  0  0  0  0
 21 27  1  0  0  0  0
 22 23  4  0  0  0  0
 22 28  1  0  0  0  0
 23 24  4  0  0  0  0
 23 26  1  0  0  0  0
 24 25  4  0  0  0  0
 24 29  1  0  0  0  0
 25 30  1  0  0  0  0
 26 31  1  0  0  0  0
 26 32  1  0  0  0  0
M  END
> <BCLConfClusterSize>
1

> <ConfClashScore>
0 

> <ConfOneFourInteractionScore>
-0.949001 

> <ConfScore>
-0.146311 

> <ConfScorePBest>
0.00598259 

> <ConfTolerance>
0.215759 

> <RosettaParamsInstructions>
M  ROOT 3
M  POLY_N_BB 3
M  POLY_CA_BB 4
M  POLY_C_BB 2
M  POLY_O_BB 5
M  POLY_IGNORE 9 10 11 12 13 14 15 16 17 18 
M  POLY_UPPER 6
M  POLY_LOWER 8
M  POLY_CHG 0
M  POLY_PROPERTIES ALPHA_AA L_AA PROTEIN AROMATIC POLYMER 
M  END

$$$$



 32 32  0  0  0  0  0  0  0  0999 V2000
   -1.0890    1.8920   -0.5600 H   0  0  0  1  0  0  0  0  0  0  0  0
    0.3882    3.3580   -0.3272 C   0  0  0  1  0  0  0  0  0  0  0  0
    0.3089    1.0749    0.6850 N   0  0  0  1  0  0  0  0  0  0  0  0
   -0.4638    2.2257    0.2417 C   0  0  0  1  0  0  0  0  0  0  0  0
   -0.0693    4.1387   -1.1455 O   0  0  0  1  0  0  0  0  0  0  0  0
    1.6681    3.3658    0.0779 N   0  0  0  1  0  0  0  0  0  0  0  0
    0.2995    0.8366    1.6355 H   0  0  0  1  0  0  0  0  0  0  0  0
    1.0307    0.3319   -0.1589 C   0  0  0  1  0  0  0  0  0  0  0  0
    2.6526    4.2844   -0.4741 C   0  0  0  1  0  0  0  0  0  0  0  0
    1.7049   -0.8944    0.4482 C   0  0  0  1  0  0  0  0  0  0  0  0
    1.1550    0.6036   -1.3521 O   0  0  0  1  0  0  0  0  0  0  0  0
    1.9491    2.7308    0.7694 H   0  0  0  1  0  0  0  0  0  0  0  0
    2.3011    5.2896   -0.3700 H   0  0  0  1  0  0  0  0  0  0  0  0
    2.8030    4.0650   -1.5105 H   0  0  0  1  0  0  0  0  0  0  0  0
    3.5776    4.1740    0.0522 H   0  0  0  1  0  0  0  0  0  0  0  0
    2.3699   -0.5869    1.2281 H   0  0  0  1  0  0  0  0  0  0  0  0
    2.2581   -1.4088   -0.3096 H   0  0  0  1  0  0  0  0  0  0  0  0
    0.9598   -1.5475    0.8520 H   0  0  0  1  0  0  0  0  0  0  0  0
   -4.4032    8.2433    0.3789 I   0  0  0  1  0  0  0  0  0  0  0  0
   -3.4175    6.4271    0.6918 C   0  0  0  1  0  0  0  0  0  0  0  0
   -2.5641    6.2783    1.7740 C   0  0  0  1  0  0  0  0  0  0  0  0
   -1.9084    5.0788    1.9774 C   0  0  0  1  0  0  0  0  0  0  0  0
   -2.1083    4.0227    1.1021 C   0  0  0  1  0  0  0  0  0  0  0  0
   -2.9591    4.1708    0.0229 C   0  0  0  1  0  0  0  0  0  0  0  0
   -3.6167    5.3740   -0.1809 C   0  0  0  1  0  0  0  0  0  0  0  0
   -1.3965    2.7096    1.3270 C   0  0  0  1  0  0  0  0  0  0  0  0
   -2.4173    7.0693    2.4330 H   0  0  0  1  0  0  0  0  0  0  0  0
   -1.2651    4.9685    2.7871 H   0  0  0  1  0  0  0  0  0  0  0  0
   -3.1058    3.3797   -0.6360 H   0  0  0  1  0  0  0  0  0  0  0  0
   -4.2600    5.4843   -0.9906 H   0  0  0  1  0  0  0  0  0  0  0  0
   -0.8210    2.8069    2.2238 H   0  0  0  1  0  0  0  0  0  0  0  0
   -2.1461    1.9583    1.4633 H   0  0  0  1  0  0  0  0  0  0  0  0
  1  4  1  0  0  0  0
  2  4  1  0  0  0  0
  2  5  2  0  0  0  0
  2  6  1  0  0  0  0
  3  4  1  0  0  0  0
  3  7  1  0  0  0  0
  3  8  1  0  0  0  0
  4 26  1  0  0  0  0
  6  9  1  0  0  0  0
  6 12  1  0  0  0  0
  8 10  1  0  0  0  0
  8 11  2  0  0  0  0
  9 13  1  0  0  0  0
  9 14  1  0  0  0  0
  9 15  1  0  0  0  0
 10 16  1  0  0  0  0
 10 17  1  0  0  0  0
 10 18  1  0  0  0  0
 19 20  1  0  0  0  0
 20 21  4  0  0  0  0
 20 25  4  0  0  0  0
 21 22  4  0  0  0  0
 21 27  1  0  0  0  0
 22 23  4  0  0  0  0
 22 28  1  0  0  0  0
 23 24  4  0  0  0  0
 23 26  1  0  0  0  0
 24 25  4  0  0  0  0
 24 29  1  0  0  0  0
 25 30  1  0  0  0  0
 26 31  1  0  0  0  0
 26 32  1  0  0  0  0
M  END
> <BCLConfClusterSize>
1

> <ConfClashScore>
0 

> <ConfOneFourInteractionScore>
-0.960318 

> <ConfScore>
-0.14506 

> <ConfScorePBest>
0.00595411 

> <ConfTolerance>
0.363858 

> <RosettaParamsInstructions>
M  ROOT 3
M  POLY_N_BB 3
M  POLY_CA_BB 4
M  POLY_C_BB 2
M  POLY_O_BB 5
M  POLY_IGNORE 9 10 11 12 13 14 15 16 17 18 
M  POLY_UPPER 6
M  POLY_LOWER 8
M  POLY_CHG 0
M  POLY_PROPERTIES ALPHA_AA L_AA PROTEIN AROMATIC POLYMER 
M  END

$$$$



 32 32  0  0  0  0  0  0  0  0999 V2000
    0.5178    3.6737    1.4050 H   0  0  0  1  0  0  0  0  0  0  0  0
    0.8778    1.5970    1.2943 C   0  0  0  1  0  0  0  0  0  0  0  0
    0.1078    3.0532   -0.5262 N   0  0  0  1  0  0  0  0  0  0  0  0
    0.0799    2.8293    0.9148 C   0  0  0  1  0  0  0  0  0  0  0  0
    0.5048    0.4721    0.9720 O   0  0  0  1  0  0  0  0  0  0  0  0
    1.9951    1.8210    1.9918 N   0  0  0  1  0  0  0  0  0  0  0  0
   -0.2787    2.3592   -1.1001 H   0  0  0  1  0  0  0  0  0  0  0  0
    0.6199    4.1314   -1.1217 C   0  0  0  1  0  0  0  0  0  0  0  0
    2.8015    0.7390    2.5366 C   0  0  0  1  0  0  0  0  0  0  0  0
    0.5660    4.1349   -2.6371 C   0  0  0  1  0  0  0  0  0  0  0  0
    1.1089    5.0724   -0.4981 O   0  0  0  1  0  0  0  0  0  0  0  0
    2.2815    2.7461    2.1418 H   0  0  0  1  0  0  0  0  0  0  0  0
    2.3372   -0.1992    2.3146 H   0  0  0  1  0  0  0  0  0  0  0  0
    2.8829    0.8543    3.5972 H   0  0  0  1  0  0  0  0  0  0  0  0
    3.7773    0.7662    2.0984 H   0  0  0  1  0  0  0  0  0  0  0  0
    1.5610    4.1605   -3.0298 H   0  0  0  1  0  0  0  0  0  0  0  0
    0.0282    4.9969   -2.9726 H   0  0  0  1  0  0  0  0  0  0  0  0
    0.0708    3.2498   -2.9782 H   0  0  0  1  0  0  0  0  0  0  0  0
   -4.4007    8.2454    0.3836 I   0  0  0  1  0  0  0  0  0  0  0  0
   -3.4178    6.4267    0.6912 C   0  0  0  1  0  0  0  0  0  0  0  0
   -2.5636    6.2739    1.7722 C   0  0  0  1  0  0  0  0  0  0  0  0
   -1.9097    5.0728    1.9721 C   0  0  0  1  0  0  0  0  0  0  0  0
   -2.1123    4.0191    1.0945 C   0  0  0  1  0  0  0  0  0  0  0  0
   -2.9639    4.1713    0.0166 C   0  0  0  1  0  0  0  0  0  0  0  0
   -3.6196    5.3760   -0.1838 C   0  0  0  1  0  0  0  0  0  0  0  0
   -1.3776    2.7270    1.3628 C   0  0  0  1  0  0  0  0  0  0  0  0
   -2.4148    7.0632    2.4329 H   0  0  0  1  0  0  0  0  0  0  0  0
   -1.2658    4.9596    2.7809 H   0  0  0  1  0  0  0  0  0  0  0  0
   -3.1127    3.3820   -0.6441 H   0  0  0  1  0  0  0  0  0  0  0  0
   -4.2635    5.4893   -0.9926 H   0  0  0  1  0  0  0  0  0  0  0  0
   -1.4083    2.5171    2.4116 H   0  0  0  1  0  0  0  0  0  0  0  0
   -1.8548    1.9341    0.8257 H   0  0  0  1  0  0  0  0  0  0  0  0
  1  4  1  0  0  0  0
  2  4  1  0  0  0  0
  2  5  2  0  0  0  0
  2  6  1  0  0  0  0
  3  4  1  0  0  0  0
  3  7  1  0  0  0  0
  3  8  1  0  0  0  0
  4 26  1  0  0  0  0
  6  9  1  0  0  0  0
  6 12  1  0  0  0  0
  8 10  1  0  0  0  0
  8 11  2  0  0  0  0
  9 13  1  0  0  0  0
  9 14  1  0  0  0  0
  9 15  1  0  0  0  0
 10 16  1  0  0  0  0
 10 17  1  0  0  0  0
 10 18  1  0  0  0  0
 19 20  1  0  0  0  0
 20 21  4  0  0  0  0
 20 25  4  0  0  0  0
 21 22  4  0  0  0  0
 21 27  1  0  0  0  0
 22 23  4  0  0  0  0
 22 28  1  0  0  0  0
 23 24  4  0  0  0  0
 23 26  1  0  0  0  0
 24 25  4  0  0  0  0
 24 29  1  0  0  0  0
 25 30  1  0  0  0  0
 26 31  1  0  0  0  0
 26 32  1  0  0  0  0
M  END
> <BCLConfClusterSize>
1

> <ConfClashScore>
0 

> <ConfOneFourInteractionScore>
-0.971454 

> <ConfScore>
-0.144014 

> <ConfScorePBest>
0.00592562 

> <ConfTolerance>
0.334626 

> <RosettaParamsInstructions>
M  ROOT 3
M  POLY_N_BB 3
M  POLY_CA_BB 4
M  POLY_C_BB 2
M  POLY_O_BB 5
M  POLY_IGNORE 9 10 11 12 13 14 15 16 17 18 
M  POLY_UPPER 6
M  POLY_LOWER 8
M  POLY_CHG 0
M  POLY_PROPERTIES ALPHA_AA L_AA PROTEIN AROMATIC POLYMER 
M  END

$$$$



 32 32  0  0  0  0  0  0  0  0999 V2000
   -3.2506    2.0526    2.2523 H   0  0  0  1  0  0  0  0  0  0  0  0
   -1.9096    0.4348    2.3709 C   0  0  0  1  0  0  0  0  0  0  0  0
   -1.8933    2.5063    3.7338 N   0  0  0  1  0  0  0  0  0  0  0  0
   -2.2034    1.9262    2.4320 C   0  0  0  1  0  0  0  0  0  0  0  0
   -0.7544    0.0118    2.3540 O   0  0  0  1  0  0  0  0  0  0  0  0
   -2.9833   -0.3702    2.3375 N   0  0  0  1  0  0  0  0  0  0  0  0
   -0.9617    2.4363    4.0298 H   0  0  0  1  0  0  0  0  0  0  0  0
   -2.7362    3.1231    4.5697 C   0  0  0  1  0  0  0  0  0  0  0  0
   -2.9423   -1.8041    2.0921 C   0  0  0  1  0  0  0  0  0  0  0  0
   -2.1397    3.5859    5.8829 C   0  0  0  1  0  0  0  0  0  0  0  0
   -3.9210    3.3112    4.3065 O   0  0  0  1  0  0  0  0  0  0  0  0
   -3.8609    0.0385    2.4899 H   0  0  0  1  0  0  0  0  0  0  0  0
   -1.9816   -2.1863    2.3676 H   0  0  0  1  0  0  0  0  0  0  0  0
   -3.1165   -1.9930    1.0534 H   0  0  0  1  0  0  0  0  0  0  0  0
   -3.6986   -2.2872    2.6747 H   0  0  0  1  0  0  0  0  0  0  0  0
   -2.8866    3.5465    6.6481 H   0  0  0  1  0  0  0  0  0  0  0  0
   -1.7876    4.5910    5.7799 H   0  0  0  1  0  0  0  0  0  0  0  0
   -1.3234    2.9469    6.1484 H   0  0  0  1  0  0  0  0  0  0  0  0
   -4.4224    8.2340    0.3884 I   0  0  0  1  0  0  0  0  0  0  0  0
   -3.4201    6.4258    0.6944 C   0  0  0  1  0  0  0  0  0  0  0  0
   -2.5624    6.2820    1.7739 C   0  0  0  1  0  0  0  0  0  0  0  0
   -1.8957    5.0878    1.9728 C   0  0  0  1  0  0  0  0  0  0  0  0
   -2.0889    4.0319    1.0958 C   0  0  0  1  0  0  0  0  0  0  0  0
   -2.9440    4.1750    0.0194 C   0  0  0  1  0  0  0  0  0  0  0  0
   -3.6126    5.3729   -0.1800 C   0  0  0  1  0  0  0  0  0  0  0  0
   -1.4611    2.6793    1.3357 C   0  0  0  1  0  0  0  0  0  0  0  0
   -2.4205    7.0729    2.4342 H   0  0  0  1  0  0  0  0  0  0  0  0
   -1.2492    4.9814    2.7804 H   0  0  0  1  0  0  0  0  0  0  0  0
   -3.0859    3.3841   -0.6409 H   0  0  0  1  0  0  0  0  0  0  0  0
   -4.2592    5.4793   -0.9876 H   0  0  0  1  0  0  0  0  0  0  0  0
   -1.4992    2.1093    0.4310 H   0  0  0  1  0  0  0  0  0  0  0  0
   -0.4413    2.8132    1.6308 H   0  0  0  1  0  0  0  0  0  0  0  0
  1  4  1  0  0  0  0
  2  4  1  0  0  0  0
  2  5  2  0  0  0  0
  2  6  1  0  0  0  0
  3  4  1  0  0  0  0
  3  7  1  0  0  0  0
  3  8  1  0  0  0  0
  4 26  1  0  0  0  0
  6  9  1  0  0  0  0
  6 12  1  0  0  0  0
  8 10  1  0  0  0  0
  8 11  2  0  0  0  0
  9 13  1  0  0  0  0
  9 14  1  0  0  0  0
  9 15  1  0  0  0  0
 10 16  1  0  0  0  0
 10 17  1  0  0  0  0
 10 18  1  0  0  0  0
 19 20  1  0  0  0  0
 20 21  4  0  0  0  0
 20 25  4  0  0  0  0
 21 22  4  0  0  0  0
 21 27  1  0  0  0  0
 22 23  4  0  0  0  0
 22 28  1  0  0  0  0
 23 24  4  0  0  0  0
 23 26  1  0  0  0  0
 24 25  4  0  0  0  0
 24 29  1  0  0  0  0
 25 30  1  0  0  0  0
 26 31  1  0  0  0  0
 26 32  1  0  0  0  0
M  END
> <BCLConfClusterSize>
1

> <ConfClashScore>
0 

> <ConfOneFourInteractionScore>
-0.967579 

> <ConfScore>
-0.142676 

> <ConfScorePBest>
0.00589714 

> <ConfTolerance>
0.368771 

> <RosettaParamsInstructions>
M  ROOT 3
M  POLY_N_BB 3
M  POLY_CA_BB 4
M  POLY_C_BB 2
M  POLY_O_BB 5
M  POLY_IGNORE 9 10 11 12 13 14 15 16 17 18 
M  POLY_UPPER 6
M  POLY_LOWER 8
M  POLY_CHG 0
M  POLY_PROPERTIES ALPHA_AA L_AA PROTEIN AROMATIC POLYMER 
M  END

$$$$



 32 32  0  0  0  0  0  0  0  0999 V2000
    0.3246    3.5995    2.1436 H   0  0  0  1  0  0  0  0  0  0  0  0
    0.8440    1.6003    1.8139 C   0  0  0  1  0  0  0  0  0  0  0  0
    0.7185    3.4396    0.1311 N   0  0  0  1  0  0  0  0  0  0  0  0
    0.1385    2.8813    1.3725 C   0  0  0  1  0  0  0  0  0  0  0  0
    0.4900    0.9928    2.8518 O   0  0  0  1  0  0  0  0  0  0  0  0
    1.8732    1.2499    1.0778 N   0  0  0  1  0  0  0  0  0  0  0  0
    0.2679    3.2651   -0.7216 H   0  0  0  1  0  0  0  0  0  0  0  0
    1.8350    4.1734    0.1320 C   0  0  0  1  0  0  0  0  0  0  0  0
    2.7483    0.1710    1.5115 C   0  0  0  1  0  0  0  0  0  0  0  0
    2.3926    4.5226   -1.2292 C   0  0  0  1  0  0  0  0  0  0  0  0
    2.3882    4.5500    1.1644 O   0  0  0  1  0  0  0  0  0  0  0  0
    2.0525    1.7159    0.2345 H   0  0  0  1  0  0  0  0  0  0  0  0
    2.1791   -0.5539    2.0551 H   0  0  0  1  0  0  0  0  0  0  0  0
    3.5166    0.5669    2.1422 H   0  0  0  1  0  0  0  0  0  0  0  0
    3.1925   -0.2934    0.6559 H   0  0  0  1  0  0  0  0  0  0  0  0
    1.7428    5.2217   -1.7128 H   0  0  0  1  0  0  0  0  0  0  0  0
    2.4664    3.6352   -1.8226 H   0  0  0  1  0  0  0  0  0  0  0  0
    3.3634    4.9581   -1.1157 H   0  0  0  1  0  0  0  0  0  0  0  0
   -4.3546    8.2570    0.3230 I   0  0  0  1  0  0  0  0  0  0  0  0
   -3.4384    6.4193    0.7122 C   0  0  0  1  0  0  0  0  0  0  0  0
   -2.5773    6.2714    1.7883 C   0  0  0  1  0  0  0  0  0  0  0  0
   -1.9077    5.0775    1.9788 C   0  0  0  1  0  0  0  0  0  0  0  0
   -2.1014    4.0259    1.0967 C   0  0  0  1  0  0  0  0  0  0  0  0
   -2.9601    4.1731    0.0237 C   0  0  0  1  0  0  0  0  0  0  0  0
   -3.6316    5.3707   -0.1673 C   0  0  0  1  0  0  0  0  0  0  0  0
   -1.3745    2.7188    1.3076 C   0  0  0  1  0  0  0  0  0  0  0  0
   -2.4350    7.0590    2.4524 H   0  0  0  1  0  0  0  0  0  0  0  0
   -1.2585    4.9680    2.7840 H   0  0  0  1  0  0  0  0  0  0  0  0
   -3.1023    3.3854   -0.6404 H   0  0  0  1  0  0  0  0  0  0  0  0
   -4.2807    5.4802   -0.9724 H   0  0  0  1  0  0  0  0  0  0  0  0
   -1.7104    2.2868    2.2271 H   0  0  0  1  0  0  0  0  0  0  0  0
   -1.6120    2.0623    0.4967 H   0  0  0  1  0  0  0  0  0  0  0  0
  1  4  1  0  0  0  0
  2  4  1  0  0  0  0
  2  5  2  0  0  0  0
  2  6  1  0  0  0  0
  3  4  1  0  0  0  0
  3  7  1  0  0  0  0
  3  8  1  0  0  0  0
  4 26  1  0  0  0  0
  6  9  1  0  0  0  0
  6 12  1  0  0  0  0
  8 10  1  0  0  0  0
  8 11  2  0  0  0  0
  9 13  1  0  0  0  0
  9 14  1  0  0  0  0
  9 15  1  0  0  0  0
 10 16  1  0  0  0  0
 10 17  1  0  0  0  0
 10 18  1  0  0  0  0
 19 20  1  0  0  0  0
 20 21  4  0  0  0  0
 20 25  4  0  0  0  0
 21 22  4  0  0  0  0
 21 27  1  0  0  0  0
 22 23  4  0  0  0  0
 22 28  1  0  0  0  0
 23 24  4  0  0  0  0
 23 26  1  0  0  0  0
 24 25  4  0  0  0  0
 24 29  1  0  0  0  0
 25 30  1  0  0  0  0
 26 31  1  0  0  0  0
 26 32  1  0  0  0  0
M  END
> <BCLConfClusterSize>
1

> <ConfClashScore>
0 

> <ConfOneFourInteractionScore>
-0.94165 

> <ConfScore>
-0.138583 

> <ConfScorePBest>
0.00586866 

> <ConfTolerance>
0.298344 

> <RosettaParamsInstructions>
M  ROOT 3
M  POLY_N_BB 3
M  POLY_CA_BB 4
M  POLY_C_BB 2
M  POLY_O_BB 5
M  POLY_IGNORE 9 10 11 12 13 14 15 16 17 18 
M  POLY_UPPER 6
M  POLY_LOWER 8
M  POLY_CHG 0
M  POLY_PROPERTIES ALPHA_AA L_AA PROTEIN AROMATIC POLYMER 
M  END

$$$$



 32 32  0  0  0  0  0  0  0  0999 V2000
   -2.9004    1.4492    0.5673 H   0  0  0  1  0  0  0  0  0  0  0  0
   -1.5368    0.1902    1.5504 C   0  0  0  1  0  0  0  0  0  0  0  0
   -3.1818    1.6077    2.6016 N   0  0  0  1  0  0  0  0  0  0  0  0
   -2.2984    1.4925    1.4508 C   0  0  0  1  0  0  0  0  0  0  0  0
   -1.0683   -0.1863    2.6239 O   0  0  0  1  0  0  0  0  0  0  0  0
   -1.3885   -0.5372    0.4396 N   0  0  0  1  0  0  0  0  0  0  0  0
   -3.1004    2.3918    3.1837 H   0  0  0  1  0  0  0  0  0  0  0  0
   -4.1089    0.6724    2.8950 C   0  0  0  1  0  0  0  0  0  0  0  0
   -0.6958   -1.8171    0.4352 C   0  0  0  1  0  0  0  0  0  0  0  0
   -4.9833    0.8932    4.1139 C   0  0  0  1  0  0  0  0  0  0  0  0
   -4.2429   -0.3309    2.1957 O   0  0  0  1  0  0  0  0  0  0  0  0
   -1.7591   -0.1971   -0.4015 H   0  0  0  1  0  0  0  0  0  0  0  0
   -0.4109   -2.0656   -0.5658 H   0  0  0  1  0  0  0  0  0  0  0  0
   -1.3456   -2.5754    0.8194 H   0  0  0  1  0  0  0  0  0  0  0  0
    0.1784   -1.7513    1.0487 H   0  0  0  1  0  0  0  0  0  0  0  0
   -5.4824    1.8359    4.0295 H   0  0  0  1  0  0  0  0  0  0  0  0
   -4.3751    0.8895    4.9942 H   0  0  0  1  0  0  0  0  0  0  0  0
   -5.7095    0.1100    4.1782 H   0  0  0  1  0  0  0  0  0  0  0  0
   -4.4032    8.2433    0.3789 I   0  0  0  1  0  0  0  0  0  0  0  0
   -3.4175    6.4271    0.6918 C   0  0  0  1  0  0  0  0  0  0  0  0
   -2.5641    6.2783    1.7740 C   0  0  0  1  0  0  0  0  0  0  0  0
   -1.9084    5.0788    1.9774 C   0  0  0  1  0  0  0  0  0  0  0  0
   -2.1083    4.0227    1.1021 C   0  0  0  1  0  0  0  0  0  0  0  0
   -2.9591    4.1708    0.0229 C   0  0  0  1  0  0  0  0  0  0  0  0
   -3.6167    5.3740   -0.1809 C   0  0  0  1  0  0  0  0  0  0  0  0
   -1.3965    2.7096    1.3270 C   0  0  0  1  0  0  0  0  0  0  0  0
   -2.4173    7.0693    2.4330 H   0  0  0  1  0  0  0  0  0  0  0  0
   -1.2651    4.9685    2.7871 H   0  0  0  1  0  0  0  0  0  0  0  0
   -3.1058    3.3797   -0.6360 H   0  0  0  1  0  0  0  0  0  0  0  0
   -4.2600    5.4843   -0.9906 H   0  0  0  1  0  0  0  0  0  0  0  0
   -0.7346    2.5474    0.5020 H   0  0  0  1  0  0  0  0  0  0  0  0
   -0.8283    2.7926    2.2298 H   0  0  0  1  0  0  0  0  0  0  0  0
  1  4  1  0  0  0  0
  2  4  1  0  0  0  0
  2  5  2  0  0  0  0
  2  6  1  0  0  0  0
  3  4  1  0  0  0  0
  3  7  1  0  0  0  0
  3  8  1  0  0  0  0
  4 26  1  0  0  0  0
  6  9  1  0  0  0  0
  6 12  1  0  0  0  0
  8 10  1  0  0  0  0
  8 11  2  0  0  0  0
  9 13  1  0  0  0  0
  9 14  1  0  0  0  0
  9 15  1  0  0  0  0
 10 16  1  0  0  0  0
 10 17  1  0  0  0  0
 10 18  1  0  0  0  0
 19 20  1  0  0  0  0
 20 21  4  0  0  0  0
 20 25  4  0  0  0  0
 21 22  4  0  0  0  0
 21 27  1  0  0  0  0
 22 23  4  0  0  0  0
 22 28  1  0  0  0  0
 23 24  4  0  0  0  0
 23 26  1  0  0  0  0
 24 25  4  0  0  0  0
 24 29  1  0  0  0  0
 25 30  1  0  0  0  0
 26 31  1  0  0  0  0
 26 32  1  0  0  0  0
M  END
> <BCLConfClusterSize>
1

> <ConfClashScore>
0 

> <ConfOneFourInteractionScore>
-0.985807 

> <ConfScore>
-0.125204 

> <ConfScorePBest>
0.00584018 

> <ConfTolerance>
0.269463 

> <RosettaParamsInstructions>
M  ROOT 3
M  POLY_N_BB 3
M  POLY_CA_BB 4
M  POLY_C_BB 2
M  POLY_O_BB 5
M  POLY_IGNORE 9 10 11 12 13 14 15 16 17 18 
M  POLY_UPPER 6
M  POLY_LOWER 8
M  POLY_CHG 0
M  POLY_PROPERTIES ALPHA_AA L_AA PROTEIN AROMATIC POLYMER 
M  END

$$$$



 32 32  0  0  0  0  0  0  0  0999 V2000
   -3.0108    1.4375    0.8117 H   0  0  0  1  0  0  0  0  0  0  0  0
   -1.3722    0.2416    1.4664 C   0  0  0  1  0  0  0  0  0  0  0  0
   -2.8474    1.5947    2.8828 N   0  0  0  1  0  0  0  0  0  0  0  0
   -2.2484    1.4843    1.5611 C   0  0  0  1  0  0  0  0  0  0  0  0
   -1.4106   -0.4918    0.4820 O   0  0  0  1  0  0  0  0  0  0  0  0
   -0.5742    0.0130    2.5132 N   0  0  0  1  0  0  0  0  0  0  0  0
   -2.3850    2.1193    3.5693 H   0  0  0  1  0  0  0  0  0  0  0  0
   -4.0059    1.0057    3.1928 C   0  0  0  1  0  0  0  0  0  0  0  0
    0.4387   -1.0319    2.5051 C   0  0  0  1  0  0  0  0  0  0  0  0
   -4.4985    1.0993    4.6326 C   0  0  0  1  0  0  0  0  0  0  0  0
   -4.7049    0.3873    2.3805 O   0  0  0  1  0  0  0  0  0  0  0  0
   -0.6744    0.5683    3.3145 H   0  0  0  1  0  0  0  0  0  0  0  0
   -0.0301   -1.9826    2.3587 H   0  0  0  1  0  0  0  0  0  0  0  0
    0.9590   -1.0312    3.4400 H   0  0  0  1  0  0  0  0  0  0  0  0
    1.1318   -0.8502    1.7104 H   0  0  0  1  0  0  0  0  0  0  0  0
   -5.5024    0.7338    4.6911 H   0  0  0  1  0  0  0  0  0  0  0  0
   -4.4716    2.1199    4.9528 H   0  0  0  1  0  0  0  0  0  0  0  0
   -3.8672    0.5100    5.2643 H   0  0  0  1  0  0  0  0  0  0  0  0
   -4.4032    8.2433    0.3789 I   0  0  0  1  0  0  0  0  0  0  0  0
   -3.4175    6.4271    0.6918 C   0  0  0  1  0  0  0  0  0  0  0  0
   -2.5641    6.2783    1.7740 C   0  0  0  1  0  0  0  0  0  0  0  0
   -1.9084    5.0788    1.9774 C   0  0  0  1  0  0  0  0  0  0  0  0
   -2.1083    4.0227    1.1021 C   0  0  0  1  0  0  0  0  0  0  0  0
   -2.9591    4.1708    0.0229 C   0  0  0  1  0  0  0  0  0  0  0  0
   -3.6167    5.3740   -0.1809 C   0  0  0  1  0  0  0  0  0  0  0  0
   -1.3965    2.7096    1.3270 C   0  0  0  1  0  0  0  0  0  0  0  0
   -2.4173    7.0693    2.4330 H   0  0  0  1  0  0  0  0  0  0  0  0
   -1.2651    4.9685    2.7871 H   0  0  0  1  0  0  0  0  0  0  0  0
   -3.1058    3.3797   -0.6360 H   0  0  0  1  0  0  0  0  0  0  0  0
   -4.2600    5.4843   -0.9906 H   0  0  0  1  0  0  0  0  0  0  0  0
   -0.7937    2.5202    0.4635 H   0  0  0  1  0  0  0  0  0  0  0  0
   -0.7662    2.8296    2.1833 H   0  0  0  1  0  0  0  0  0  0  0  0
  1  4  1  0  0  0  0
  2  4  1  0  0  0  0
  2  5  2  0  0  0  0
  2  6  1  0  0  0  0
  3  4  1  0  0  0  0
  3  7  1  0  0  0  0
  3  8  1  0  0  0  0
  4 26  1  0  0  0  0
  6  9  1  0  0  0  0
  6 12  1  0  0  0  0
  8 10  1  0  0  0  0
  8 11  2  0  0  0  0
  9 13  1  0  0  0  0
  9 14  1  0  0  0  0
  9 15  1  0  0  0  0
 10 16  1  0  0  0  0
 10 17  1  0  0  0  0
 10 18  1  0  0  0  0
 19 20  1  0  0  0  0
 20 21  4  0  0  0  0
 20 25  4  0  0  0  0
 21 22  4  0  0  0  0
 21 27  1  0  0  0  0
 22 23  4  0  0  0  0
 22 28  1  0  0  0  0
 23 24  4  0  0  0  0
 23 26  1  0  0  0  0
 24 25  4  0  0  0  0
 24 29  1  0  0  0  0
 25 30  1  0  0  0  0
 26 31  1  0  0  0  0
 26 32  1  0  0  0  0
M  END
> <BCLConfClusterSize>
1

> <ConfClashScore>
0 

> <ConfOneFourInteractionScore>
-0.956443 

> <ConfScore>
-0.122972 

> <ConfScorePBest>
0.0058117 

> <ConfTolerance>
0.38543 

> <RosettaParamsInstructions>
M  ROOT 3
M  POLY_N_BB 3
M  POLY_CA_BB 4
M  POLY_C_BB 2
M  POLY_O_BB 5
M  POLY_IGNORE 9 10 11 12 13 14 15 16 17 18 
M  POLY_UPPER 6
M  POLY_LOWER 8
M  POLY_CHG 0
M  POLY_PROPERTIES ALPHA_AA L_AA PROTEIN AROMATIC POLYMER 
M  END

$$$$



 32 32  0  0  0  0  0  0  0  0999 V2000
    0.2176    3.6207    2.2949 H   0  0  0  1  0  0  0  0  0  0  0  0
    0.6776    1.5776    2.1330 C   0  0  0  1  0  0  0  0  0  0  0  0
    0.7230    3.2714    0.3319 N   0  0  0  1  0  0  0  0  0  0  0  0
    0.0777    2.8497    1.5663 C   0  0  0  1  0  0  0  0  0  0  0  0
    1.2195    0.7535    1.3977 O   0  0  0  1  0  0  0  0  0  0  0  0
    0.5994    1.3790    3.4584 N   0  0  0  1  0  0  0  0  0  0  0  0
    0.4209    2.8839   -0.5160 H   0  0  0  1  0  0  0  0  0  0  0  0
    1.7129    4.1685    0.3145 C   0  0  0  1  0  0  0  0  0  0  0  0
    1.0396    0.1421    4.0863 C   0  0  0  1  0  0  0  0  0  0  0  0
    2.2005    4.5847   -1.0597 C   0  0  0  1  0  0  0  0  0  0  0  0
    2.2088    4.6371    1.3357 O   0  0  0  1  0  0  0  0  0  0  0  0
    0.2331    2.0916    4.0226 H   0  0  0  1  0  0  0  0  0  0  0  0
    0.7208   -0.6914    3.4960 H   0  0  0  1  0  0  0  0  0  0  0  0
    0.6147    0.0687    5.0656 H   0  0  0  1  0  0  0  0  0  0  0  0
    2.1071    0.1397    4.1592 H   0  0  0  1  0  0  0  0  0  0  0  0
    2.7404    3.7764   -1.5070 H   0  0  0  1  0  0  0  0  0  0  0  0
    2.8436    5.4349   -0.9672 H   0  0  0  1  0  0  0  0  0  0  0  0
    1.3617    4.8364   -1.6744 H   0  0  0  1  0  0  0  0  0  0  0  0
   -4.4488    8.2256    0.4369 I   0  0  0  1  0  0  0  0  0  0  0  0
   -3.3967    6.4349    0.6711 C   0  0  0  1  0  0  0  0  0  0  0  0
   -2.5514    6.2854    1.7594 C   0  0  0  1  0  0  0  0  0  0  0  0
   -1.9095    5.0806    1.9758 C   0  0  0  1  0  0  0  0  0  0  0  0
   -2.1154    4.0201    1.1073 C   0  0  0  1  0  0  0  0  0  0  0  0
   -2.9583    4.1689    0.0221 C   0  0  0  1  0  0  0  0  0  0  0  0
   -3.6019    5.3773   -0.1948 C   0  0  0  1  0  0  0  0  0  0  0  0
   -1.4189    2.7013    1.3464 C   0  0  0  1  0  0  0  0  0  0  0  0
   -2.4000    7.0799    2.4132 H   0  0  0  1  0  0  0  0  0  0  0  0
   -1.2722    4.9698    2.7901 H   0  0  0  1  0  0  0  0  0  0  0  0
   -3.1096    3.3744   -0.6317 H   0  0  0  1  0  0  0  0  0  0  0  0
   -4.2393    5.4881   -1.0091 H   0  0  0  1  0  0  0  0  0  0  0  0
   -1.8466    2.2425    2.2132 H   0  0  0  1  0  0  0  0  0  0  0  0
   -1.5774    2.0731    0.4948 H   0  0  0  1  0  0  0  0  0  0  0  0
  1  4  1  0  0  0  0
  2  4  1  0  0  0  0
  2  5  2  0  0  0  0
  2  6  1  0  0  0  0
  3  4  1  0  0  0  0
  3  7  1  0  0  0  0
  3  8  1  0  0  0  0
  4 26  1  0  0  0  0
  6  9  1  0  0  0  0
  6 12  1  0  0  0  0
  8 10  1  0  0  0  0
  8 11  2  0  0  0  0
  9 13  1  0  0  0  0
  9 14  1  0  0  0  0
  9 15  1  0  0  0  0
 10 16  1  0  0  0  0
 10 17  1  0  0  0  0
 10 18  1  0  0  0  0
 19 20  1  0  0  0  0
 20 21  4  0  0  0  0
 20 25  4  0  0  0  0
 21 22  4  0  0  0  0
 21 27  1  0  0  0  0
 22 23  4  0  0  0  0
 22 28  1  0  0  0  0
 23 24  4  0  0  0  0
 23 26  1  0  0  0  0
 24 25  4  0  0  0  0
 24 29  1  0  0  0  0
 25 30  1  0  0  0  0
 26 31  1  0  0  0  0
 26 32  1  0  0  0  0
M  END
> <BCLConfClusterSize>
1

> <ConfClashScore>
0 

> <ConfOneFourInteractionScore>
-0.985807 

> <ConfScore>
-0.117746 

> <ConfScorePBest>
0.00578322 

> <ConfTolerance>
0.274133 

> <RosettaParamsInstructions>
M  ROOT 3
M  POLY_N_BB 3
M  POLY_CA_BB 4
M  POLY_C_BB 2
M  POLY_O_BB 5
M  POLY_IGNORE 9 10 11 12 13 14 15 16 17 18 
M  POLY_UPPER 6
M  POLY_LOWER 8
M  POLY_CHG 0
M  POLY_PROPERTIES ALPHA_AA L_AA PROTEIN AROMATIC POLYMER 
M  END

$$$$



 32 32  0  0  0  0  0  0  0  0999 V2000
   -1.2472    2.3898   -0.8136 H   0  0  0  1  0  0  0  0  0  0  0  0
   -0.5016    0.6720    0.1784 C   0  0  0  1  0  0  0  0  0  0  0  0
   -2.8532    1.2818   -0.1048 N   0  0  0  1  0  0  0  0  0  0  0  0
   -1.5026    1.8030    0.0439 C   0  0  0  1  0  0  0  0  0  0  0  0
    0.6891    0.8393   -0.0806 O   0  0  0  1  0  0  0  0  0  0  0  0
   -1.0014   -0.5028    0.5931 N   0  0  0  1  0  0  0  0  0  0  0  0
   -3.5759    1.6284    0.4591 H   0  0  0  1  0  0  0  0  0  0  0  0
   -3.1121    0.3238   -1.0161 C   0  0  0  1  0  0  0  0  0  0  0  0
   -0.2164   -1.7051    0.8301 C   0  0  0  1  0  0  0  0  0  0  0  0
   -4.5575   -0.1256   -1.1068 C   0  0  0  1  0  0  0  0  0  0  0  0
   -2.2445   -0.1668   -1.7372 O   0  0  0  1  0  0  0  0  0  0  0  0
   -1.9677   -0.5548    0.7480 H   0  0  0  1  0  0  0  0  0  0  0  0
   -0.7844   -2.5651    0.5426 H   0  0  0  1  0  0  0  0  0  0  0  0
    0.0292   -1.7713    1.8694 H   0  0  0  1  0  0  0  0  0  0  0  0
    0.6834   -1.6629    0.2525 H   0  0  0  1  0  0  0  0  0  0  0  0
   -4.9911   -0.1337   -0.1287 H   0  0  0  1  0  0  0  0  0  0  0  0
   -4.5990   -1.1104   -1.5232 H   0  0  0  1  0  0  0  0  0  0  0  0
   -5.1022    0.5500   -1.7326 H   0  0  0  1  0  0  0  0  0  0  0  0
   -4.4059    8.2409    0.3740 I   0  0  0  1  0  0  0  0  0  0  0  0
   -3.4171    6.4273    0.6924 C   0  0  0  1  0  0  0  0  0  0  0  0
   -2.5646    6.2828    1.7759 C   0  0  0  1  0  0  0  0  0  0  0  0
   -1.9069    5.0850    1.9830 C   0  0  0  1  0  0  0  0  0  0  0  0
   -2.1039    4.0264    1.1101 C   0  0  0  1  0  0  0  0  0  0  0  0
   -2.9538    4.1702    0.0297 C   0  0  0  1  0  0  0  0  0  0  0  0
   -3.6134    5.3716   -0.1778 C   0  0  0  1  0  0  0  0  0  0  0  0
   -1.4177    2.6926    1.2883 C   0  0  0  1  0  0  0  0  0  0  0  0
   -2.4200    7.0758    2.4331 H   0  0  0  1  0  0  0  0  0  0  0  0
   -1.2643    4.9780    2.7937 H   0  0  0  1  0  0  0  0  0  0  0  0
   -3.0984    3.3772   -0.6274 H   0  0  0  1  0  0  0  0  0  0  0  0
   -4.2560    5.4787   -0.9885 H   0  0  0  1  0  0  0  0  0  0  0  0
   -0.3861    2.8676    1.5121 H   0  0  0  1  0  0  0  0  0  0  0  0
   -1.8785    2.1791    2.1061 H   0  0  0  1  0  0  0  0  0  0  0  0
  1  4  1  0  0  0  0
  2  4  1  0  0  0  0
  2  5  2  0  0  0  0
  2  6  1  0  0  0  0
  3  4  1  0  0  0  0
  3  7  1  0  0  0  0
  3  8  1  0  0  0  0
  4 26  1  0  0  0  0
  6  9  1  0  0  0  0
  6 12  1  0  0  0  0
  8 10  1  0  0  0  0
  8 11  2  0  0  0  0
  9 13  1  0  0  0  0
  9 14  1  0  0  0  0
  9 15  1  0  0  0  0
 10 16  1  0  0  0  0
 10 17  1  0  0  0  0
 10 18  1  0  0  0  0
 19 20  1  0  0  0  0
 20 21  4  0  0  0  0
 20 25  4  0  0  0  0
 21 22  4  0  0  0  0
 21 27  1  0  0  0  0
 22 23  4  0  0  0  0
 22 28  1  0  0  0  0
 23 24  4  0  0  0  0
 23 26  1  0  0  0  0
 24 25  4  0  0  0  0
 24 29  1  0  0  0  0
 25 30  1  0  0  0  0
 26 31  1  0  0  0  0
 26 32  1  0  0  0  0
M  END
> <BCLConfClusterSize>
1

> <ConfClashScore>
0 

> <ConfOneFourInteractionScore>
-0.949001 

> <ConfScore>
-0.114408 

> <ConfScorePBest>
0.00575474 

> <ConfTolerance>
0.345721 

> <RosettaParamsInstructions>
M  ROOT 3
M  POLY_N_BB 3
M  POLY_CA_BB 4
M  POLY_C_BB 2
M  POLY_O_BB 5
M  POLY_IGNORE 9 10 11 12 13 14 15 16 17 18 
M  POLY_UPPER 6
M  POLY_LOWER 8
M  POLY_CHG 0
M  POLY_PROPERTIES ALPHA_AA L_AA PROTEIN AROMATIC POLYMER 
M  END

$$$$



 32 32  0  0  0  0  0  0  0  0999 V2000
   -3.1655    1.6301    0.7838 H   0  0  0  1  0  0  0  0  0  0  0  0
   -1.6680    0.2332    1.2746 C   0  0  0  1  0  0  0  0  0  0  0  0
   -3.0078    1.6009    2.8375 N   0  0  0  1  0  0  0  0  0  0  0  0
   -2.3931    1.5460    1.5196 C   0  0  0  1  0  0  0  0  0  0  0  0
   -1.1927   -0.4076    2.2084 O   0  0  0  1  0  0  0  0  0  0  0  0
   -1.5636   -0.2012    0.0155 N   0  0  0  1  0  0  0  0  0  0  0  0
   -2.6344    2.2097    3.5086 H   0  0  0  1  0  0  0  0  0  0  0  0
   -4.1035    0.8218    3.1768 C   0  0  0  1  0  0  0  0  0  0  0  0
   -0.7684   -1.3667   -0.3413 C   0  0  0  1  0  0  0  0  0  0  0  0
   -4.6798    0.9348    4.5602 C   0  0  0  1  0  0  0  0  0  0  0  0
   -4.5643    0.0686    2.3385 O   0  0  0  1  0  0  0  0  0  0  0  0
   -2.0390    0.2817   -0.6924 H   0  0  0  1  0  0  0  0  0  0  0  0
    0.2563   -1.1909   -0.0883 H   0  0  0  1  0  0  0  0  0  0  0  0
   -0.8502   -1.5455   -1.3931 H   0  0  0  1  0  0  0  0  0  0  0  0
   -1.1266   -2.2204    0.1951 H   0  0  0  1  0  0  0  0  0  0  0  0
   -3.9568    0.6045    5.2765 H   0  0  0  1  0  0  0  0  0  0  0  0
   -5.5566    0.3256    4.6320 H   0  0  0  1  0  0  0  0  0  0  0  0
   -4.9365    1.9547    4.7572 H   0  0  0  1  0  0  0  0  0  0  0  0
   -4.4059    8.2409    0.3740 I   0  0  0  1  0  0  0  0  0  0  0  0
   -3.4171    6.4273    0.6924 C   0  0  0  1  0  0  0  0  0  0  0  0
   -2.5646    6.2828    1.7759 C   0  0  0  1  0  0  0  0  0  0  0  0
   -1.9069    5.0850    1.9830 C   0  0  0  1  0  0  0  0  0  0  0  0
   -2.1039    4.0264    1.1101 C   0  0  0  1  0  0  0  0  0  0  0  0
   -2.9538    4.1702    0.0297 C   0  0  0  1  0  0  0  0  0  0  0  0
   -3.6134    5.3716   -0.1778 C   0  0  0  1  0  0  0  0  0  0  0  0
   -1.4177    2.6926    1.2883 C   0  0  0  1  0  0  0  0  0  0  0  0
   -2.4200    7.0758    2.4331 H   0  0  0  1  0  0  0  0  0  0  0  0
   -1.2643    4.9780    2.7937 H   0  0  0  1  0  0  0  0  0  0  0  0
   -3.0984    3.3772   -0.6274 H   0  0  0  1  0  0  0  0  0  0  0  0
   -4.2560    5.4787   -0.9885 H   0  0  0  1  0  0  0  0  0  0  0  0
   -0.8477    2.4825    0.4075 H   0  0  0  1  0  0  0  0  0  0  0  0
   -0.7618    2.7570    2.1312 H   0  0  0  1  0  0  0  0  0  0  0  0
  1  4  1  0  0  0  0
  2  4  1  0  0  0  0
  2  5  2  0  0  0  0
  2  6  1  0  0  0  0
  3  4  1  0  0  0  0
  3  7  1  0  0  0  0
  3  8  1  0  0  0  0
  4 26  1  0  0  0  0
  6  9  1  0  0  0  0
  6 12  1  0  0  0  0
  8 10  1  0  0  0  0
  8 11  2  0  0  0  0
  9 13  1  0  0  0  0
  9 14  1  0  0  0  0
  9 15  1  0  0  0  0
 10 16  1  0  0  0  0
 10 17  1  0  0  0  0
 10 18  1  0  0  0  0
 19 20  1  0  0  0  0
 20 21  4  0  0  0  0
 20 25  4  0  0  0  0
 21 22  4  0  0  0  0
 21 27  1  0  0  0  0
 22 23  4  0  0  0  0
 22 28  1  0  0  0  0
 23 24  4  0  0  0  0
 23 26  1  0  0  0  0
 24 25  4  0  0  0  0
 24 29  1  0  0  0  0
 25 30  1  0  0  0  0
 26 31  1  0  0  0  0
 26 32  1  0  0  0  0
M  END
> <BCLConfClusterSize>
1

> <ConfClashScore>
0 

> <ConfOneFourInteractionScore>
-0.985807 

> <ConfScore>
-0.110691 

> <ConfScorePBest>
0.00572626 

> <ConfTolerance>
0.391781 

> <RosettaParamsInstructions>
M  ROOT 3
M  POLY_N_BB 3
M  POLY_CA_BB 4
M  POLY_C_BB 2
M  POLY_O_BB 5
M  POLY_IGNORE 9 10 11 12 13 14 15 16 17 18 
M  POLY_UPPER 6
M  POLY_LOWER 8
M  POLY_CHG 0
M  POLY_PROPERTIES ALPHA_AA L_AA PROTEIN AROMATIC POLYMER 
M  END

$$$$



 32 32  0  0  0  0  0  0  0  0999 V2000
   -3.1302    1.7740    2.1133 H   0  0  0  1  0  0  0  0  0  0  0  0
   -1.5987    0.3136    2.1071 C   0  0  0  1  0  0  0  0  0  0  0  0
   -1.8008    2.2339    3.6295 N   0  0  0  1  0  0  0  0  0  0  0  0
   -2.0742    1.7500    2.2837 C   0  0  0  1  0  0  0  0  0  0  0  0
   -0.5140   -0.0508    2.5301 O   0  0  0  1  0  0  0  0  0  0  0  0
   -2.4412   -0.5020    1.4669 N   0  0  0  1  0  0  0  0  0  0  0  0
   -0.9675    2.7275    3.7791 H   0  0  0  1  0  0  0  0  0  0  0  0
   -2.6170    2.0469    4.6778 C   0  0  0  1  0  0  0  0  0  0  0  0
   -2.1565   -1.9157    1.2709 C   0  0  0  1  0  0  0  0  0  0  0  0
   -2.1962    2.8064    5.9209 C   0  0  0  1  0  0  0  0  0  0  0  0
   -3.6197    1.3341    4.6662 O   0  0  0  1  0  0  0  0  0  0  0  0
   -3.2802   -0.1357    1.1172 H   0  0  0  1  0  0  0  0  0  0  0  0
   -1.7034   -2.0592    0.3122 H   0  0  0  1  0  0  0  0  0  0  0  0
   -3.0683   -2.4733    1.3212 H   0  0  0  1  0  0  0  0  0  0  0  0
   -1.4883   -2.2540    2.0351 H   0  0  0  1  0  0  0  0  0  0  0  0
   -1.2163    3.2116    5.7773 H   0  0  0  1  0  0  0  0  0  0  0  0
   -2.1877    2.1414    6.7591 H   0  0  0  1  0  0  0  0  0  0  0  0
   -2.8877    3.6023    6.1035 H   0  0  0  1  0  0  0  0  0  0  0  0
   -4.4059    8.2409    0.3740 I   0  0  0  1  0  0  0  0  0  0  0  0
   -3.4171    6.4273    0.6924 C   0  0  0  1  0  0  0  0  0  0  0  0
   -2.5646    6.2828    1.7759 C   0  0  0  1  0  0  0  0  0  0  0  0
   -1.9069    5.0850    1.9830 C   0  0  0  1  0  0  0  0  0  0  0  0
   -2.1039    4.0264    1.1101 C   0  0  0  1  0  0  0  0  0  0  0  0
   -2.9538    4.1702    0.0297 C   0  0  0  1  0  0  0  0  0  0  0  0
   -3.6134    5.3716   -0.1778 C   0  0  0  1  0  0  0  0  0  0  0  0
   -1.4177    2.6926    1.2883 C   0  0  0  1  0  0  0  0  0  0  0  0
   -2.4200    7.0758    2.4331 H   0  0  0  1  0  0  0  0  0  0  0  0
   -1.2643    4.9780    2.7937 H   0  0  0  1  0  0  0  0  0  0  0  0
   -3.0984    3.3772   -0.6274 H   0  0  0  1  0  0  0  0  0  0  0  0
   -4.2560    5.4787   -0.9885 H   0  0  0  1  0  0  0  0  0  0  0  0
   -1.3943    2.2037    0.3368 H   0  0  0  1  0  0  0  0  0  0  0  0
   -0.4172    2.8778    1.6195 H   0  0  0  1  0  0  0  0  0  0  0  0
  1  4  1  0  0  0  0
  2  4  1  0  0  0  0
  2  5  2  0  0  0  0
  2  6  1  0  0  0  0
  3  4  1  0  0  0  0
  3  7  1  0  0  0  0
  3  8  1  0  0  0  0
  4 26  1  0  0  0  0
  6  9  1  0  0  0  0
  6 12  1  0  0  0  0
  8 10  1  0  0  0  0
  8 11  2  0  0  0  0
  9 13  1  0  0  0  0
  9 14  1  0  0  0  0
  9 15  1  0  0  0  0
 10 16  1  0  0  0  0
 10 17  1  0  0  0  0
 10 18  1  0  0  0  0
 19 20  1  0  0  0  0
 20 21  4  0  0  0  0
 20 25  4  0  0  0  0
 21 22  4  0  0  0  0
 21 27  1  0  0  0  0
 22 23  4  0  0  0  0
 22 28  1  0  0  0  0
 23 24  4  0  0  0  0
 23 26  1  0  0  0  0
 24 25  4  0  0  0  0
 24 29  1  0  0  0  0
 25 30  1  0  0  0  0
 26 31  1  0  0  0  0
 26 32  1  0  0  0  0
M  END
> <BCLConfClusterSize>
1

> <ConfClashScore>
0 

> <ConfOneFourInteractionScore>
-0.974251 

> <ConfScore>
-0.109868 

> <ConfScorePBest>
0.00569778 

> <ConfTolerance>
0.258108 

> <RosettaParamsInstructions>
M  ROOT 3
M  POLY_N_BB 3
M  POLY_CA_BB 4
M  POLY_C_BB 2
M  POLY_O_BB 5
M  POLY_IGNORE 9 10 11 12 13 14 15 16 17 18 
M  POLY_UPPER 6
M  POLY_LOWER 8
M  POLY_CHG 0
M  POLY_PROPERTIES ALPHA_AA L_AA PROTEIN AROMATIC POLYMER 
M  END

$$$$



 32 32  0  0  0  0  0  0  0  0999 V2000
   -1.6106    0.7586    2.0890 H   0  0  0  1  0  0  0  0  0  0  0  0
   -2.4508    2.0721    3.5165 C   0  0  0  1  0  0  0  0  0  0  0  0
   -3.4759    1.3482    1.4326 N   0  0  0  1  0  0  0  0  0  0  0  0
   -2.1986    1.6523    2.0678 C   0  0  0  1  0  0  0  0  0  0  0  0
   -3.5063    2.6030    3.8597 O   0  0  0  1  0  0  0  0  0  0  0  0
   -1.4224    1.8042    4.3447 N   0  0  0  1  0  0  0  0  0  0  0  0
   -4.2641    1.8426    1.7405 H   0  0  0  1  0  0  0  0  0  0  0  0
   -3.6563    0.4261    0.4404 C   0  0  0  1  0  0  0  0  0  0  0  0
   -1.4770    2.2242    5.7370 C   0  0  0  1  0  0  0  0  0  0  0  0
   -5.0972    0.3001   -0.0147 C   0  0  0  1  0  0  0  0  0  0  0  0
   -2.7314   -0.2195   -0.0169 O   0  0  0  1  0  0  0  0  0  0  0  0
   -0.6360    1.3256    4.0089 H   0  0  0  1  0  0  0  0  0  0  0  0
   -2.4972    2.2712    6.0562 H   0  0  0  1  0  0  0  0  0  0  0  0
   -1.0278    3.1903    5.8358 H   0  0  0  1  0  0  0  0  0  0  0  0
   -0.9462    1.5198    6.3428 H   0  0  0  1  0  0  0  0  0  0  0  0
   -5.3949    1.1999   -0.5113 H   0  0  0  1  0  0  0  0  0  0  0  0
   -5.7265    0.1372    0.8352 H   0  0  0  1  0  0  0  0  0  0  0  0
   -5.1870   -0.5257   -0.6892 H   0  0  0  1  0  0  0  0  0  0  0  0
   -4.4032    8.2433    0.3789 I   0  0  0  1  0  0  0  0  0  0  0  0
   -3.4175    6.4271    0.6918 C   0  0  0  1  0  0  0  0  0  0  0  0
   -2.5641    6.2783    1.7740 C   0  0  0  1  0  0  0  0  0  0  0  0
   -1.9084    5.0788    1.9774 C   0  0  0  1  0  0  0  0  0  0  0  0
   -2.1083    4.0227    1.1021 C   0  0  0  1  0  0  0  0  0  0  0  0
   -2.9591    4.1708    0.0229 C   0  0  0  1  0  0  0  0  0  0  0  0
   -3.6167    5.3740   -0.1809 C   0  0  0  1  0  0  0  0  0  0  0  0
   -1.3965    2.7096    1.3270 C   0  0  0  1  0  0  0  0  0  0  0  0
   -2.4173    7.0693    2.4330 H   0  0  0  1  0  0  0  0  0  0  0  0
   -1.2651    4.9685    2.7871 H   0  0  0  1  0  0  0  0  0  0  0  0
   -3.1058    3.3797   -0.6360 H   0  0  0  1  0  0  0  0  0  0  0  0
   -4.2600    5.4843   -0.9906 H   0  0  0  1  0  0  0  0  0  0  0  0
   -1.1290    2.3111    0.3707 H   0  0  0  1  0  0  0  0  0  0  0  0
   -0.5098    2.9074    1.8922 H   0  0  0  1  0  0  0  0  0  0  0  0
  1  4  1  0  0  0  0
  2  4  1  0  0  0  0
  2  5  2  0  0  0  0
  2  6  1  0  0  0  0
  3  4  1  0  0  0  0
  3  7  1  0  0  0  0
  3  8  1  0  0  0  0
  4 26  1  0  0  0  0
  6  9  1  0  0  0  0
  6 12  1  0  0  0  0
  8 10  1  0  0  0  0
  8 11  2  0  0  0  0
  9 13  1  0  0  0  0
  9 14  1  0  0  0  0
  9 15  1  0  0  0  0
 10 16  1  0  0  0  0
 10 17  1  0  0  0  0
 10 18  1  0  0  0  0
 19 20  1  0  0  0  0
 20 21  4  0  0  0  0
 20 25  4  0  0  0  0
 21 22  4  0  0  0  0
 21 27  1  0  0  0  0
 22 23  4  0  0  0  0
 22 28  1  0  0  0  0
 23 24  4  0  0  0  0
 23 26  1  0  0  0  0
 24 25  4  0  0  0  0
 24 29  1  0  0  0  0
 25 30  1  0  0  0  0
 26 31  1  0  0  0  0
 26 32  1  0  0  0  0
M  END
> <BCLConfClusterSize>
1

> <ConfClashScore>
0 

> <ConfOneFourInteractionScore>
-0.982677 

> <ConfScore>
-0.104445 

> <ConfScorePBest>
0.0056693 

> <ConfTolerance>
0.184148 

> <RosettaParamsInstructions>
M  ROOT 3
M  POLY_N_BB 3
M  POLY_CA_BB 4
M  POLY_C_BB 2
M  POLY_O_BB 5
M  POLY_IGNORE 9 10 11 12 13 14 15 16 17 18 
M  POLY_UPPER 6
M  POLY_LOWER 8
M  POLY_CHG 0
M  POLY_PROPERTIES ALPHA_AA L_AA PROTEIN AROMATIC POLYMER 
M  END

$$$$



 32 32  0  0  0  0  0  0  0  0999 V2000
   -1.7028    0.7828    2.1869 H   0  0  0  1  0  0  0  0  0  0  0  0
   -2.6807    2.2477    3.3816 C   0  0  0  1  0  0  0  0  0  0  0  0
   -3.4395    1.3960    1.2145 N   0  0  0  1  0  0  0  0  0  0  0  0
   -2.2704    1.6770    2.0343 C   0  0  0  1  0  0  0  0  0  0  0  0
   -3.7997    2.6981    3.5641 O   0  0  0  1  0  0  0  0  0  0  0  0
   -1.7434    2.2202    4.3333 N   0  0  0  1  0  0  0  0  0  0  0  0
   -4.2039    2.0080    1.2552 H   0  0  0  1  0  0  0  0  0  0  0  0
   -3.5078    0.3222    0.4004 C   0  0  0  1  0  0  0  0  0  0  0  0
   -1.9801    2.7378    5.6726 C   0  0  0  1  0  0  0  0  0  0  0  0
   -4.8202    0.0255   -0.2692 C   0  0  0  1  0  0  0  0  0  0  0  0
   -2.5261   -0.3945    0.2102 O   0  0  0  1  0  0  0  0  0  0  0  0
   -0.8659    1.8383    4.1221 H   0  0  0  1  0  0  0  0  0  0  0  0
   -2.7496    3.4804    5.6378 H   0  0  0  1  0  0  0  0  0  0  0  0
   -1.0795    3.1754    6.0500 H   0  0  0  1  0  0  0  0  0  0  0  0
   -2.2851    1.9383    6.3150 H   0  0  0  1  0  0  0  0  0  0  0  0
   -5.5468   -0.2387    0.4705 H   0  0  0  1  0  0  0  0  0  0  0  0
   -4.6955   -0.7880   -0.9529 H   0  0  0  1  0  0  0  0  0  0  0  0
   -5.1525    0.8920   -0.8018 H   0  0  0  1  0  0  0  0  0  0  0  0
   -4.3572    8.2784    0.4619 I   0  0  0  1  0  0  0  0  0  0  0  0
   -3.4283    6.4179    0.6718 C   0  0  0  1  0  0  0  0  0  0  0  0
   -2.5784    6.2857    1.7589 C   0  0  0  1  0  0  0  0  0  0  0  0
   -1.9150    5.0929    1.9766 C   0  0  0  1  0  0  0  0  0  0  0  0
   -2.1037    4.0270    1.1107 C   0  0  0  1  0  0  0  0  0  0  0  0
   -2.9511    4.1587    0.0267 C   0  0  0  1  0  0  0  0  0  0  0  0
   -3.6164    5.3551   -0.1915 C   0  0  0  1  0  0  0  0  0  0  0  0
   -1.4111    2.6983    1.3005 C   0  0  0  1  0  0  0  0  0  0  0  0
   -2.4399    7.0841    2.4107 H   0  0  0  1  0  0  0  0  0  0  0  0
   -1.2743    4.9951    2.7899 H   0  0  0  1  0  0  0  0  0  0  0  0
   -3.0895    3.3602   -0.6251 H   0  0  0  1  0  0  0  0  0  0  0  0
   -4.2571    5.4529   -1.0048 H   0  0  0  1  0  0  0  0  0  0  0  0
   -1.1609    2.3040    0.3378 H   0  0  0  1  0  0  0  0  0  0  0  0
   -0.5160    2.8583    1.8646 H   0  0  0  1  0  0  0  0  0  0  0  0
  1  4  1  0  0  0  0
  2  4  1  0  0  0  0
  2  5  2  0  0  0  0
  2  6  1  0  0  0  0
  3  4  1  0  0  0  0
  3  7  1  0  0  0  0
  3  8  1  0  0  0  0
  4 26  1  0  0  0  0
  6  9  1  0  0  0  0
  6 12  1  0  0  0  0
  8 10  1  0  0  0  0
  8 11  2  0  0  0  0
  9 13  1  0  0  0  0
  9 14  1  0  0  0  0
  9 15  1  0  0  0  0
 10 16  1  0  0  0  0
 10 17  1  0  0  0  0
 10 18  1  0  0  0  0
 19 20  1  0  0  0  0
 20 21  4  0  0  0  0
 20 25  4  0  0  0  0
 21 22  4  0  0  0  0
 21 27  1  0  0  0  0
 22 23  4  0  0  0  0
 22 28  1  0  0  0  0
 23 24  4  0  0  0  0
 23 26  1  0  0  0  0
 24 25  4  0  0  0  0
 24 29  1  0  0  0  0
 25 30  1  0  0  0  0
 26 31  1  0  0  0  0
 26 32  1  0  0  0  0
M  END
> <BCLConfClusterSize>
1

> <ConfClashScore>
0 

> <ConfOneFourInteractionScore>
-0.987258 

> <ConfScore>
-0.102277 

> <ConfScorePBest>
0.00564082 

> <ConfTolerance>
0.206717 

> <RosettaParamsInstructions>
M  ROOT 3
M  POLY_N_BB 3
M  POLY_CA_BB 4
M  POLY_C_BB 2
M  POLY_O_BB 5
M  POLY_IGNORE 9 10 11 12 13 14 15 16 17 18 
M  POLY_UPPER 6
M  POLY_LOWER 8
M  POLY_CHG 0
M  POLY_PROPERTIES ALPHA_AA L_AA PROTEIN AROMATIC POLYMER 
M  END

$$$$



 32 32  0  0  0  0  0  0  0  0999 V2000
   -1.8312    1.7709   -0.5225 H   0  0  0  1  0  0  0  0  0  0  0  0
   -1.2899    0.2663    0.8784 C   0  0  0  1  0  0  0  0  0  0  0  0
   -3.4346    1.4506    0.7575 N   0  0  0  1  0  0  0  0  0  0  0  0
   -2.0044    1.5628    0.5127 C   0  0  0  1  0  0  0  0  0  0  0  0
   -0.3159   -0.1207    0.2341 O   0  0  0  1  0  0  0  0  0  0  0  0
   -1.7552   -0.4379    1.9223 N   0  0  0  1  0  0  0  0  0  0  0  0
   -3.8355    1.9873    1.4727 H   0  0  0  1  0  0  0  0  0  0  0  0
   -4.2199    0.6413    0.0411 C   0  0  0  1  0  0  0  0  0  0  0  0
   -1.1705   -1.7081    2.3257 C   0  0  0  1  0  0  0  0  0  0  0  0
   -5.6889    0.6463    0.4172 C   0  0  0  1  0  0  0  0  0  0  0  0
   -3.7972   -0.0686   -0.8676 O   0  0  0  1  0  0  0  0  0  0  0  0
   -2.5149   -0.0843    2.4304 H   0  0  0  1  0  0  0  0  0  0  0  0
   -1.9463   -2.3745    2.6403 H   0  0  0  1  0  0  0  0  0  0  0  0
   -0.4898   -1.5460    3.1352 H   0  0  0  1  0  0  0  0  0  0  0  0
   -0.6456   -2.1376    1.4981 H   0  0  0  1  0  0  0  0  0  0  0  0
   -6.2537    0.1469   -0.3420 H   0  0  0  1  0  0  0  0  0  0  0  0
   -6.0298    1.6564    0.5088 H   0  0  0  1  0  0  0  0  0  0  0  0
   -5.8196    0.1392    1.3503 H   0  0  0  1  0  0  0  0  0  0  0  0
   -4.4651    8.2113    0.4050 I   0  0  0  1  0  0  0  0  0  0  0  0
   -3.3930    6.4382    0.6786 C   0  0  0  1  0  0  0  0  0  0  0  0
   -2.5466    6.2843    1.7656 C   0  0  0  1  0  0  0  0  0  0  0  0
   -1.9067    5.0779    1.9780 C   0  0  0  1  0  0  0  0  0  0  0  0
   -2.1155    4.0200    1.1070 C   0  0  0  1  0  0  0  0  0  0  0  0
   -2.9593    4.1732    0.0231 C   0  0  0  1  0  0  0  0  0  0  0  0
   -3.6011    5.3833   -0.1898 C   0  0  0  1  0  0  0  0  0  0  0  0
   -1.4210    2.6994    1.3418 C   0  0  0  1  0  0  0  0  0  0  0  0
   -2.3932    7.0768    2.4213 H   0  0  0  1  0  0  0  0  0  0  0  0
   -1.2686    4.9638    2.7913 H   0  0  0  1  0  0  0  0  0  0  0  0
   -3.1128    3.3807   -0.6326 H   0  0  0  1  0  0  0  0  0  0  0  0
   -4.2392    5.4974   -1.0031 H   0  0  0  1  0  0  0  0  0  0  0  0
   -0.3869    2.8088    1.0897 H   0  0  0  1  0  0  0  0  0  0  0  0
   -1.5113    2.4465    2.3776 H   0  0  0  1  0  0  0  0  0  0  0  0
  1  4  1  0  0  0  0
  2  4  1  0  0  0  0
  2  5  2  0  0  0  0
  2  6  1  0  0  0  0
  3  4  1  0  0  0  0
  3  7  1  0  0  0  0
  3  8  1  0  0  0  0
  4 26  1  0  0  0  0
  6  9  1  0  0  0  0
  6 12  1  0  0  0  0
  8 10  1  0  0  0  0
  8 11  2  0  0  0  0
  9 13  1  0  0  0  0
  9 14  1  0  0  0  0
  9 15  1  0  0  0  0
 10 16  1  0  0  0  0
 10 17  1  0  0  0  0
 10 18  1  0  0  0  0
 19 20  1  0  0  0  0
 20 21  4  0  0  0  0
 20 25  4  0  0  0  0
 21 22  4  0  0  0  0
 21 27  1  0  0  0  0
 22 23  4  0  0  0  0
 22 28  1  0  0  0  0
 23 24  4  0  0  0  0
 23 26  1  0  0  0  0
 24 25  4  0  0  0  0
 24 29  1  0  0  0  0
 25 30  1  0  0  0  0
 26 31  1  0  0  0  0
 26 32  1  0  0  0  0
M  END
> <BCLConfClusterSize>
1

> <ConfClashScore>
0 

> <ConfOneFourInteractionScore>
-0.952877 

> <ConfScore>
-0.09706 

> <ConfScorePBest>
0.00561234 

> <ConfTolerance>
0.345505 

> <RosettaParamsInstructions>
M  ROOT 3
M  POLY_N_BB 3
M  POLY_CA_BB 4
M  POLY_C_BB 2
M  POLY_O_BB 5
M  POLY_IGNORE 9 10 11 12 13 14 15 16 17 18 
M  POLY_UPPER 6
M  POLY_LOWER 8
M  POLY_CHG 0
M  POLY_PROPERTIES ALPHA_AA L_AA PROTEIN AROMATIC POLYMER 
M  END

$$$$



 32 32  0  0  0  0  0  0  0  0999 V2000
    0.1804    3.3095    0.0524 H   0  0  0  1  0  0  0  0  0  0  0  0
    0.6660    1.3703    0.6981 C   0  0  0  1  0  0  0  0  0  0  0  0
   -1.0837    2.0154   -0.9511 N   0  0  0  1  0  0  0  0  0  0  0  0
   -0.3478    2.4020    0.2578 C   0  0  0  1  0  0  0  0  0  0  0  0
    1.7387    1.7116    1.1945 O   0  0  0  1  0  0  0  0  0  0  0  0
    0.3618    0.0800    0.5318 N   0  0  0  1  0  0  0  0  0  0  0  0
   -2.0630    2.0508   -0.9403 H   0  0  0  1  0  0  0  0  0  0  0  0
   -0.4652    1.6168   -2.0663 C   0  0  0  1  0  0  0  0  0  0  0  0
    1.2750   -0.9887    0.9085 C   0  0  0  1  0  0  0  0  0  0  0  0
   -1.3700    1.2576   -3.2289 C   0  0  0  1  0  0  0  0  0  0  0  0
    0.7568    1.5399   -2.1622 O   0  0  0  1  0  0  0  0  0  0  0  0
   -0.5064   -0.1550    0.1427 H   0  0  0  1  0  0  0  0  0  0  0  0
    2.2777   -0.6154    0.9166 H   0  0  0  1  0  0  0  0  0  0  0  0
    1.1981   -1.7887    0.2021 H   0  0  0  1  0  0  0  0  0  0  0  0
    1.0205   -1.3477    1.8838 H   0  0  0  1  0  0  0  0  0  0  0  0
   -2.2863    1.8044   -3.1505 H   0  0  0  1  0  0  0  0  0  0  0  0
   -1.5781    0.2082   -3.2075 H   0  0  0  1  0  0  0  0  0  0  0  0
   -0.8838    1.5066   -4.1490 H   0  0  0  1  0  0  0  0  0  0  0  0
   -4.3790    8.2629    0.4232 I   0  0  0  1  0  0  0  0  0  0  0  0
   -3.4231    6.4223    0.6814 C   0  0  0  1  0  0  0  0  0  0  0  0
   -2.5710    6.2797    1.7654 C   0  0  0  1  0  0  0  0  0  0  0  0
   -1.9124    5.0827    1.9742 C   0  0  0  1  0  0  0  0  0  0  0  0
   -2.1081    4.0229    1.1024 C   0  0  0  1  0  0  0  0  0  0  0  0
   -2.9577    4.1649    0.0214 C   0  0  0  1  0  0  0  0  0  0  0  0
   -3.6181    5.3656   -0.1878 C   0  0  0  1  0  0  0  0  0  0  0  0
   -1.3932    2.7125    1.3331 C   0  0  0  1  0  0  0  0  0  0  0  0
   -2.4273    7.0735    2.4218 H   0  0  0  1  0  0  0  0  0  0  0  0
   -1.2701    4.9771    2.7853 H   0  0  0  1  0  0  0  0  0  0  0  0
   -3.1013    3.3710   -0.6349 H   0  0  0  1  0  0  0  0  0  0  0  0
   -4.2605    5.4712   -0.9989 H   0  0  0  1  0  0  0  0  0  0  0  0
   -0.9025    2.7550    2.2830 H   0  0  0  1  0  0  0  0  0  0  0  0
   -2.1183    1.9257    1.3406 H   0  0  0  1  0  0  0  0  0  0  0  0
  1  4  1  0  0  0  0
  2  4  1  0  0  0  0
  2  5  2  0  0  0  0
  2  6  1  0  0  0  0
  3  4  1  0  0  0  0
  3  7  1  0  0  0  0
  3  8  1  0  0  0  0
  4 26  1  0  0  0  0
  6  9  1  0  0  0  0
  6 12  1  0  0  0  0
  8 10  1  0  0  0  0
  8 11  2  0  0  0  0
  9 13  1  0  0  0  0
  9 14  1  0  0  0  0
  9 15  1  0  0  0  0
 10 16  1  0  0  0  0
 10 17  1  0  0  0  0
 10 18  1  0  0  0  0
 19 20  1  0  0  0  0
 20 21  4  0  0  0  0
 20 25  4  0  0  0  0
 21 22  4  0  0  0  0
 21 27  1  0  0  0  0
 22 23  4  0  0  0  0
 22 28  1  0  0  0  0
 23 24  4  0  0  0  0
 23 26  1  0  0  0  0
 24 25  4  0  0  0  0
 24 29  1  0  0  0  0
 25 30  1  0  0  0  0
 26 31  1  0  0  0  0
 26 32  1  0  0  0  0
M  END
> <BCLConfClusterSize>
1

> <ConfClashScore>
0 

> <ConfOneFourInteractionScore>
-0.944706 

> <ConfScore>
-0.0933393 

> <ConfScorePBest>
0.00558386 

> <ConfTolerance>
0.224884 

> <RosettaParamsInstructions>
M  ROOT 3
M  POLY_N_BB 3
M  POLY_CA_BB 4
M  POLY_C_BB 2
M  POLY_O_BB 5
M  POLY_IGNORE 9 10 11 12 13 14 15 16 17 18 
M  POLY_UPPER 6
M  POLY_LOWER 8
M  POLY_CHG 0
M  POLY_PROPERTIES ALPHA_AA L_AA PROTEIN AROMATIC POLYMER 
M  END

$$$$



 32 32  0  0  0  0  0  0  0  0999 V2000
   -2.5637    1.2711    0.3344 H   0  0  0  1  0  0  0  0  0  0  0  0
   -1.4276    0.2487    1.7917 C   0  0  0  1  0  0  0  0  0  0  0  0
   -3.3976    1.7132    2.1720 N   0  0  0  1  0  0  0  0  0  0  0  0
   -2.2350    1.4531    1.3362 C   0  0  0  1  0  0  0  0  0  0  0  0
   -1.4493   -0.1180    2.9659 O   0  0  0  1  0  0  0  0  0  0  0  0
   -0.6954   -0.3978    0.8802 N   0  0  0  1  0  0  0  0  0  0  0  0
   -3.2883    2.2616    2.9769 H   0  0  0  1  0  0  0  0  0  0  0  0
   -4.6206    1.2258    1.8773 C   0  0  0  1  0  0  0  0  0  0  0  0
    0.2101   -1.4801    1.2358 C   0  0  0  1  0  0  0  0  0  0  0  0
   -5.7356    1.4432    2.8817 C   0  0  0  1  0  0  0  0  0  0  0  0
   -4.8278    0.6223    0.8254 O   0  0  0  1  0  0  0  0  0  0  0  0
   -0.7708   -0.1340   -0.0606 H   0  0  0  1  0  0  0  0  0  0  0  0
   -0.1307   -1.9502    2.1345 H   0  0  0  1  0  0  0  0  0  0  0  0
    1.1930   -1.0863    1.3901 H   0  0  0  1  0  0  0  0  0  0  0  0
    0.2338   -2.1996    0.4441 H   0  0  0  1  0  0  0  0  0  0  0  0
   -6.6385    1.0022    2.5140 H   0  0  0  1  0  0  0  0  0  0  0  0
   -5.8850    2.4927    3.0268 H   0  0  0  1  0  0  0  0  0  0  0  0
   -5.4702    0.9881    3.8130 H   0  0  0  1  0  0  0  0  0  0  0  0
   -4.4032    8.2433    0.3789 I   0  0  0  1  0  0  0  0  0  0  0  0
   -3.4175    6.4271    0.6918 C   0  0  0  1  0  0  0  0  0  0  0  0
   -2.5641    6.2783    1.7740 C   0  0  0  1  0  0  0  0  0  0  0  0
   -1.9084    5.0788    1.9774 C   0  0  0  1  0  0  0  0  0  0  0  0
   -2.1083    4.0227    1.1021 C   0  0  0  1  0  0  0  0  0  0  0  0
   -2.9591    4.1708    0.0229 C   0  0  0  1  0  0  0  0  0  0  0  0
   -3.6167    5.3740   -0.1809 C   0  0  0  1  0  0  0  0  0  0  0  0
   -1.3965    2.7096    1.3270 C   0  0  0  1  0  0  0  0  0  0  0  0
   -2.4173    7.0693    2.4330 H   0  0  0  1  0  0  0  0  0  0  0  0
   -1.2651    4.9685    2.7871 H   0  0  0  1  0  0  0  0  0  0  0  0
   -3.1058    3.3797   -0.6360 H   0  0  0  1  0  0  0  0  0  0  0  0
   -4.2600    5.4843   -0.9906 H   0  0  0  1  0  0  0  0  0  0  0  0
   -0.6684    2.6029    0.5502 H   0  0  0  1  0  0  0  0  0  0  0  0
   -0.9021    2.7715    2.2739 H   0  0  0  1  0  0  0  0  0  0  0  0
  1  4  1  0  0  0  0
  2  4  1  0  0  0  0
  2  5  2  0  0  0  0
  2  6  1  0  0  0  0
  3  4  1  0  0  0  0
  3  7  1  0  0  0  0
  3  8  1  0  0  0  0
  4 26  1  0  0  0  0
  6  9  1  0  0  0  0
  6 12  1  0  0  0  0
  8 10  1  0  0  0  0
  8 11  2  0  0  0  0
  9 13  1  0  0  0  0
  9 14  1  0  0  0  0
  9 15  1  0  0  0  0
 10 16  1  0  0  0  0
 10 17  1  0  0  0  0
 10 18  1  0  0  0  0
 19 20  1  0  0  0  0
 20 21  4  0  0  0  0
 20 25  4  0  0  0  0
 21 22  4  0  0  0  0
 21 27  1  0  0  0  0
 22 23  4  0  0  0  0
 22 28  1  0  0  0  0
 23 24  4  0  0  0  0
 23 26  1  0  0  0  0
 24 25  4  0  0  0  0
 24 29  1  0  0  0  0
 25 30  1  0  0  0  0
 26 31  1  0  0  0  0
 26 32  1  0  0  0  0
M  END
> <BCLConfClusterSize>
1

> <ConfClashScore>
0 

> <ConfOneFourInteractionScore>
-0.972289 

> <ConfScore>
-0.0825246 

> <ConfScorePBest>
0.00555537 

> <ConfTolerance>
0.373436 

> <RosettaParamsInstructions>
M  ROOT 3
M  POLY_N_BB 3
M  POLY_CA_BB 4
M  POLY_C_BB 2
M  POLY_O_BB 5
M  POLY_IGNORE 9 10 11 12 13 14 15 16 17 18 
M  POLY_UPPER 6
M  POLY_LOWER 8
M  POLY_CHG 0
M  POLY_PROPERTIES ALPHA_AA L_AA PROTEIN AROMATIC POLYMER 
M  END

$$$$



 32 32  0  0  0  0  0  0  0  0999 V2000
   -1.5130    0.9251    2.4402 H   0  0  0  1  0  0  0  0  0  0  0  0
   -2.0711    2.5282    3.7051 C   0  0  0  1  0  0  0  0  0  0  0  0
   -3.4397    1.4509    1.9360 N   0  0  0  1  0  0  0  0  0  0  0  0
   -2.0937    1.8188    2.3452 C   0  0  0  1  0  0  0  0  0  0  0  0
   -3.1104    2.9930    4.1714 O   0  0  0  1  0  0  0  0  0  0  0  0
   -0.9091    2.5288    4.3646 N   0  0  0  1  0  0  0  0  0  0  0  0
   -4.1873    1.9139    2.3687 H   0  0  0  1  0  0  0  0  0  0  0  0
   -3.7433    0.5000    0.9855 C   0  0  0  1  0  0  0  0  0  0  0  0
   -0.7487    3.1797    5.6563 C   0  0  0  1  0  0  0  0  0  0  0  0
   -5.1912    0.1197    0.8769 C   0  0  0  1  0  0  0  0  0  0  0  0
   -2.8614    0.0228    0.2966 O   0  0  0  1  0  0  0  0  0  0  0  0
   -0.1380    2.0751    3.9645 H   0  0  0  1  0  0  0  0  0  0  0  0
   -1.3947    4.0310    5.7099 H   0  0  0  1  0  0  0  0  0  0  0  0
    0.2671    3.4951    5.7727 H   0  0  0  1  0  0  0  0  0  0  0  0
   -1.0006    2.4914    6.4359 H   0  0  0  1  0  0  0  0  0  0  0  0
   -5.7628    0.6849    1.5831 H   0  0  0  1  0  0  0  0  0  0  0  0
   -5.3018   -0.9244    1.0829 H   0  0  0  1  0  0  0  0  0  0  0  0
   -5.5411    0.3276   -0.1127 H   0  0  0  1  0  0  0  0  0  0  0  0
   -4.4282    8.2202    0.3317 I   0  0  0  1  0  0  0  0  0  0  0  0
   -3.4115    6.4323    0.7029 C   0  0  0  1  0  0  0  0  0  0  0  0
   -2.5568    6.2769    1.7831 C   0  0  0  1  0  0  0  0  0  0  0  0
   -1.9042    5.0747    1.9808 C   0  0  0  1  0  0  0  0  0  0  0  0
   -2.1085    4.0226    1.1017 C   0  0  0  1  0  0  0  0  0  0  0  0
   -2.9606    4.1774    0.0245 C   0  0  0  1  0  0  0  0  0  0  0  0
   -3.6151    5.3832   -0.1735 C   0  0  0  1  0  0  0  0  0  0  0  0
   -1.4001    2.7066    1.3203 C   0  0  0  1  0  0  0  0  0  0  0  0
   -2.4067    7.0649    2.4450 H   0  0  0  1  0  0  0  0  0  0  0  0
   -1.2599    4.9595    2.7890 H   0  0  0  1  0  0  0  0  0  0  0  0
   -3.1108    3.3893   -0.6372 H   0  0  0  1  0  0  0  0  0  0  0  0
   -4.2595    5.4985   -0.9817 H   0  0  0  1  0  0  0  0  0  0  0  0
   -1.3593    2.1829    0.3882 H   0  0  0  1  0  0  0  0  0  0  0  0
   -0.4059    2.9075    1.6610 H   0  0  0  1  0  0  0  0  0  0  0  0
  1  4  1  0  0  0  0
  2  4  1  0  0  0  0
  2  5  2  0  0  0  0
  2  6  1  0  0  0  0
  3  4  1  0  0  0  0
  3  7  1  0  0  0  0
  3  8  1  0  0  0  0
  4 26  1  0  0  0  0
  6  9  1  0  0  0  0
  6 12  1  0  0  0  0
  8 10  1  0  0  0  0
  8 11  2  0  0  0  0
  9 13  1  0  0  0  0
  9 14  1  0  0  0  0
  9 15  1  0  0  0  0
 10 16  1  0  0  0  0
 10 17  1  0  0  0  0
 10 18  1  0  0  0  0
 19 20  1  0  0  0  0
 20 21  4  0  0  0  0
 20 25  4  0  0  0  0
 21 22  4  0  0  0  0
 21 27  1  0  0  0  0
 22 23  4  0  0  0  0
 22 28  1  0  0  0  0
 23 24  4  0  0  0  0
 23 26  1  0  0  0  0
 24 25  4  0  0  0  0
 24 29  1  0  0  0  0
 25 30  1  0  0  0  0
 26 31  1  0  0  0  0
 26 32  1  0  0  0  0
M  END
> <BCLConfClusterSize>
1

> <ConfClashScore>
0 

> <ConfOneFourInteractionScore>
-0.987258 

> <ConfScore>
-0.0798512 

> <ConfScorePBest>
0.00552689 

> <ConfTolerance>
0.244008 

> <RosettaParamsInstructions>
M  ROOT 3
M  POLY_N_BB 3
M  POLY_CA_BB 4
M  POLY_C_BB 2
M  POLY_O_BB 5
M  POLY_IGNORE 9 10 11 12 13 14 15 16 17 18 
M  POLY_UPPER 6
M  POLY_LOWER 8
M  POLY_CHG 0
M  POLY_PROPERTIES ALPHA_AA L_AA PROTEIN AROMATIC POLYMER 
M  END

$$$$



 32 32  0  0  0  0  0  0  0  0999 V2000
    0.4572    1.7517    1.0237 H   0  0  0  1  0  0  0  0  0  0  0  0
    0.1980    3.0330   -0.6331 C   0  0  0  1  0  0  0  0  0  0  0  0
    0.8394    3.6891    1.6104 N   0  0  0  1  0  0  0  0  0  0  0  0
    0.0513    2.7272    0.8545 C   0  0  0  1  0  0  0  0  0  0  0  0
    0.0458    2.1542   -1.4799 O   0  0  0  1  0  0  0  0  0  0  0  0
    0.4096    4.3117   -0.9573 N   0  0  0  1  0  0  0  0  0  0  0  0
    0.4327    4.1742    2.3585 H   0  0  0  1  0  0  0  0  0  0  0  0
    2.1162    3.9125    1.2865 C   0  0  0  1  0  0  0  0  0  0  0  0
    0.5579    4.7497   -2.3371 C   0  0  0  1  0  0  0  0  0  0  0  0
    2.8776    4.9409    2.1234 C   0  0  0  1  0  0  0  0  0  0  0  0
    2.6506    3.3880    0.3103 O   0  0  0  1  0  0  0  0  0  0  0  0
    0.4670    4.9780   -0.2408 H   0  0  0  1  0  0  0  0  0  0  0  0
   -0.0348    4.1277   -2.9749 H   0  0  0  1  0  0  0  0  0  0  0  0
    1.5859    4.6786   -2.6251 H   0  0  0  1  0  0  0  0  0  0  0  0
    0.2315    5.7648   -2.4259 H   0  0  0  1  0  0  0  0  0  0  0  0
    3.0896    4.5298    3.0883 H   0  0  0  1  0  0  0  0  0  0  0  0
    2.2809    5.8221    2.2346 H   0  0  0  1  0  0  0  0  0  0  0  0
    3.7952    5.1905    1.6329 H   0  0  0  1  0  0  0  0  0  0  0  0
   -4.4032    8.2433    0.3789 I   0  0  0  1  0  0  0  0  0  0  0  0
   -3.4175    6.4271    0.6918 C   0  0  0  1  0  0  0  0  0  0  0  0
   -2.5641    6.2783    1.7740 C   0  0  0  1  0  0  0  0  0  0  0  0
   -1.9084    5.0788    1.9774 C   0  0  0  1  0  0  0  0  0  0  0  0
   -2.1083    4.0227    1.1021 C   0  0  0  1  0  0  0  0  0  0  0  0
   -2.9591    4.1708    0.0229 C   0  0  0  1  0  0  0  0  0  0  0  0
   -3.6167    5.3740   -0.1809 C   0  0  0  1  0  0  0  0  0  0  0  0
   -1.3965    2.7096    1.3270 C   0  0  0  1  0  0  0  0  0  0  0  0
   -2.4173    7.0693    2.4330 H   0  0  0  1  0  0  0  0  0  0  0  0
   -1.2651    4.9685    2.7871 H   0  0  0  1  0  0  0  0  0  0  0  0
   -3.1058    3.3797   -0.6360 H   0  0  0  1  0  0  0  0  0  0  0  0
   -4.2600    5.4843   -0.9906 H   0  0  0  1  0  0  0  0  0  0  0  0
   -1.4104    2.4897    2.3740 H   0  0  0  1  0  0  0  0  0  0  0  0
   -1.9194    1.9431    0.7941 H   0  0  0  1  0  0  0  0  0  0  0  0
  1  4  1  0  0  0  0
  2  4  1  0  0  0  0
  2  5  2  0  0  0  0
  2  6  1  0  0  0  0
  3  4  1  0  0  0  0
  3  7  1  0  0  0  0
  3  8  1  0  0  0  0
  4 26  1  0  0  0  0
  6  9  1  0  0  0  0
  6 12  1  0  0  0  0
  8 10  1  0  0  0  0
  8 11  2  0  0  0  0
  9 13  1  0  0  0  0
  9 14  1  0  0  0  0
  9 15  1  0  0  0  0
 10 16  1  0  0  0  0
 10 17  1  0  0  0  0
 10 18  1  0  0  0  0
 19 20  1  0  0  0  0
 20 21  4  0  0  0  0
 20 25  4  0  0  0  0
 21 22  4  0  0  0  0
 21 27  1  0  0  0  0
 22 23  4  0  0  0  0
 22 28  1  0  0  0  0
 23 24  4  0  0  0  0
 23 26  1  0  0  0  0
 24 25  4  0  0  0  0
 24 29  1  0  0  0  0
 25 30  1  0  0  0  0
 26 31  1  0  0  0  0
 26 32  1  0  0  0  0
M  END
> <BCLConfClusterSize>
1

> <ConfClashScore>
0 

> <ConfOneFourInteractionScore>
-0.950605 

> <ConfScore>
-0.0761165 

> <ConfScorePBest>
0.00549841 

> <ConfTolerance>
0.186352 

> <RosettaParamsInstructions>
M  ROOT 3
M  POLY_N_BB 3
M  POLY_CA_BB 4
M  POLY_C_BB 2
M  POLY_O_BB 5
M  POLY_IGNORE 9 10 11 12 13 14 15 16 17 18 
M  POLY_UPPER 6
M  POLY_LOWER 8
M  POLY_CHG 0
M  POLY_PROPERTIES ALPHA_AA L_AA PROTEIN AROMATIC POLYMER 
M  END

$$$$



 32 32  0  0  0  0  0  0  0  0999 V2000
   -1.5402    0.9318    2.3647 H   0  0  0  1  0  0  0  0  0  0  0  0
   -2.2451    2.4464    3.6268 C   0  0  0  1  0  0  0  0  0  0  0  0
   -3.4240    1.4325    1.7297 N   0  0  0  1  0  0  0  0  0  0  0  0
   -2.1221    1.8224    2.2503 C   0  0  0  1  0  0  0  0  0  0  0  0
   -1.4557    2.1765    4.5171 O   0  0  0  1  0  0  0  0  0  0  0  0
   -3.2665    3.3008    3.7903 N   0  0  0  1  0  0  0  0  0  0  0  0
   -3.7757    1.8953    0.9408 H   0  0  0  1  0  0  0  0  0  0  0  0
   -4.1562    0.4656    2.2899 C   0  0  0  1  0  0  0  0  0  0  0  0
   -3.4452    4.0746    5.0098 C   0  0  0  1  0  0  0  0  0  0  0  0
   -5.4168    0.0769    1.5423 C   0  0  0  1  0  0  0  0  0  0  0  0
   -3.8437   -0.0858    3.3444 O   0  0  0  1  0  0  0  0  0  0  0  0
   -3.9149    3.4076    3.0632 H   0  0  0  1  0  0  0  0  0  0  0  0
   -2.4927    4.2482    5.4654 H   0  0  0  1  0  0  0  0  0  0  0  0
   -4.0709    3.5324    5.6875 H   0  0  0  1  0  0  0  0  0  0  0  0
   -3.9032    5.0122    4.7731 H   0  0  0  1  0  0  0  0  0  0  0  0
   -5.1581   -0.2813    0.5678 H   0  0  0  1  0  0  0  0  0  0  0  0
   -6.0544    0.9313    1.4503 H   0  0  0  1  0  0  0  0  0  0  0  0
   -5.9276   -0.6935    2.0812 H   0  0  0  1  0  0  0  0  0  0  0  0
   -4.3863    8.2498    0.3656 I   0  0  0  1  0  0  0  0  0  0  0  0
   -3.4144    6.4282    0.6898 C   0  0  0  1  0  0  0  0  0  0  0  0
   -2.5661    6.2780    1.7758 C   0  0  0  1  0  0  0  0  0  0  0  0
   -1.9195    5.0749    1.9867 C   0  0  0  1  0  0  0  0  0  0  0  0
   -2.1235    4.0165    1.1151 C   0  0  0  1  0  0  0  0  0  0  0  0
   -2.9693    4.1659    0.0322 C   0  0  0  1  0  0  0  0  0  0  0  0
   -3.6177    5.3728   -0.1792 C   0  0  0  1  0  0  0  0  0  0  0  0
   -1.3527    2.7287    1.2851 C   0  0  0  1  0  0  0  0  0  0  0  0
   -2.4162    7.0709    2.4319 H   0  0  0  1  0  0  0  0  0  0  0  0
   -1.2800    4.9636    2.7992 H   0  0  0  1  0  0  0  0  0  0  0  0
   -3.1191    3.3731   -0.6239 H   0  0  0  1  0  0  0  0  0  0  0  0
   -4.2572    5.4840   -0.9917 H   0  0  0  1  0  0  0  0  0  0  0  0
   -1.2509    2.2420    0.3376 H   0  0  0  1  0  0  0  0  0  0  0  0
   -0.3827    2.9394    1.6844 H   0  0  0  1  0  0  0  0  0  0  0  0
  1  4  1  0  0  0  0
  2  4  1  0  0  0  0
  2  5  2  0  0  0  0
  2  6  1  0  0  0  0
  3  4  1  0  0  0  0
  3  7  1  0  0  0  0
  3  8  1  0  0  0  0
  4 26  1  0  0  0  0
  6  9  1  0  0  0  0
  6 12  1  0  0  0  0
  8 10  1  0  0  0  0
  8 11  2  0  0  0  0
  9 13  1  0  0  0  0
  9 14  1  0  0  0  0
  9 15  1  0  0  0  0
 10 16  1  0  0  0  0
 10 17  1  0  0  0  0
 10 18  1  0  0  0  0
 19 20  1  0  0  0  0
 20 21  4  0  0  0  0
 20 25  4  0  0  0  0
 21 22  4  0  0  0  0
 21 27  1  0  0  0  0
 22 23  4  0  0  0  0
 22 28  1  0  0  0  0
 23 24  4  0  0  0  0
 23 26  1  0  0  0  0
 24 25  4  0  0  0  0
 24 29  1  0  0  0  0
 25 30  1  0  0  0  0
 26 31  1  0  0  0  0
 26 32  1  0  0  0  0
M  END
> <BCLConfClusterSize>
1

> <ConfClashScore>
0 

> <ConfOneFourInteractionScore>
-0.950605 

> <ConfScore>
-0.0761165 

> <ConfScorePBest>
0.00546993 

> <ConfTolerance>
0.214155 

> <RosettaParamsInstructions>
M  ROOT 3
M  POLY_N_BB 3
M  POLY_CA_BB 4
M  POLY_C_BB 2
M  POLY_O_BB 5
M  POLY_IGNORE 9 10 11 12 13 14 15 16 17 18 
M  POLY_UPPER 6
M  POLY_LOWER 8
M  POLY_CHG 0
M  POLY_PROPERTIES ALPHA_AA L_AA PROTEIN AROMATIC POLYMER 
M  END

$$$$



 32 32  0  0  0  0  0  0  0  0999 V2000
   -1.7453    0.9148    2.4210 H   0  0  0  1  0  0  0  0  0  0  0  0
   -2.3753    2.5607    3.6075 C   0  0  0  1  0  0  0  0  0  0  0  0
   -3.5554    1.6114    1.6796 N   0  0  0  1  0  0  0  0  0  0  0  0
   -2.2453    1.8483    2.2674 C   0  0  0  1  0  0  0  0  0  0  0  0
   -3.2560    3.3947    3.8116 O   0  0  0  1  0  0  0  0  0  0  0  0
   -1.4567    2.1899    4.5041 N   0  0  0  1  0  0  0  0  0  0  0  0
   -4.2423    2.3057    1.7600 H   0  0  0  1  0  0  0  0  0  0  0  0
   -3.8570    0.4693    1.0279 C   0  0  0  1  0  0  0  0  0  0  0  0
   -1.4810    2.6591    5.8814 C   0  0  0  1  0  0  0  0  0  0  0  0
   -5.2814    0.2726    0.5604 C   0  0  0  1  0  0  0  0  0  0  0  0
   -3.0004   -0.3883    0.8189 O   0  0  0  1  0  0  0  0  0  0  0  0
   -0.7418    1.5807    4.2245 H   0  0  0  1  0  0  0  0  0  0  0  0
   -2.4426    3.0741    6.1005 H   0  0  0  1  0  0  0  0  0  0  0  0
   -0.7300    3.4094    6.0157 H   0  0  0  1  0  0  0  0  0  0  0  0
   -1.2882    1.8388    6.5409 H   0  0  0  1  0  0  0  0  0  0  0  0
   -5.5361   -0.7650    0.6179 H   0  0  0  1  0  0  0  0  0  0  0  0
   -5.3736    0.6067   -0.4519 H   0  0  0  1  0  0  0  0  0  0  0  0
   -5.9424    0.8370    1.1844 H   0  0  0  1  0  0  0  0  0  0  0  0
   -4.4032    8.2433    0.3789 I   0  0  0  1  0  0  0  0  0  0  0  0
   -3.4175    6.4271    0.6918 C   0  0  0  1  0  0  0  0  0  0  0  0
   -2.5641    6.2783    1.7740 C   0  0  0  1  0  0  0  0  0  0  0  0
   -1.9084    5.0788    1.9774 C   0  0  0  1  0  0  0  0  0  0  0  0
   -2.1083    4.0227    1.1021 C   0  0  0  1  0  0  0  0  0  0  0  0
   -2.9591    4.1708    0.0229 C   0  0  0  1  0  0  0  0  0  0  0  0
   -3.6167    5.3740   -0.1809 C   0  0  0  1  0  0  0  0  0  0  0  0
   -1.3965    2.7096    1.3270 C   0  0  0  1  0  0  0  0  0  0  0  0
   -2.4173    7.0693    2.4330 H   0  0  0  1  0  0  0  0  0  0  0  0
   -1.2651    4.9685    2.7871 H   0  0  0  1  0  0  0  0  0  0  0  0
   -3.1058    3.3797   -0.6360 H   0  0  0  1  0  0  0  0  0  0  0  0
   -4.2600    5.4843   -0.9906 H   0  0  0  1  0  0  0  0  0  0  0  0
   -1.2688    2.2043    0.3925 H   0  0  0  1  0  0  0  0  0  0  0  0
   -0.4390    2.8899    1.7693 H   0  0  0  1  0  0  0  0  0  0  0  0
  1  4  1  0  0  0  0
  2  4  1  0  0  0  0
  2  5  2  0  0  0  0
  2  6  1  0  0  0  0
  3  4  1  0  0  0  0
  3  7  1  0  0  0  0
  3  8  1  0  0  0  0
  4 26  1  0  0  0  0
  6  9  1  0  0  0  0
  6 12  1  0  0  0  0
  8 10  1  0  0  0  0
  8 11  2  0  0  0  0
  9 13  1  0  0  0  0
  9 14  1  0  0  0  0
  9 15  1  0  0  0  0
 10 16  1  0  0  0  0
 10 17  1  0  0  0  0
 10 18  1  0  0  0  0
 19 20  1  0  0  0  0
 20 21  4  0  0  0  0
 20 25  4  0  0  0  0
 21 22  4  0  0  0  0
 21 27  1  0  0  0  0
 22 23  4  0  0  0  0
 22 28  1  0  0  0  0
 23 24  4  0  0  0  0
 23 26  1  0  0  0  0
 24 25  4  0  0  0  0
 24 29  1  0  0  0  0
 25 30  1  0  0  0  0
 26 31  1  0  0  0  0
 26 32  1  0  0  0  0
M  END
> <BCLConfClusterSize>
1

> <ConfClashScore>
0 

> <ConfOneFourInteractionScore>
-0.980789 

> <ConfScore>
-0.0709652 

> <ConfScorePBest>
0.00544145 

> <ConfTolerance>
0.295748 

> <RosettaParamsInstructions>
M  ROOT 3
M  POLY_N_BB 3
M  POLY_CA_BB 4
M  POLY_C_BB 2
M  POLY_O_BB 5
M  POLY_IGNORE 9 10 11 12 13 14 15 16 17 18 
M  POLY_UPPER 6
M  POLY_LOWER 8
M  POLY_CHG 0
M  POLY_PROPERTIES ALPHA_AA L_AA PROTEIN AROMATIC POLYMER 
M  END

$$$$



 32 32  0  0  0  0  0  0  0  0999 V2000
   -2.1619    2.3527    3.2635 H   0  0  0  1  0  0  0  0  0  0  0  0
   -3.5328    1.5039    1.9080 C   0  0  0  1  0  0  0  0  0  0  0  0
   -1.3210    0.6054    2.5747 N   0  0  0  1  0  0  0  0  0  0  0  0
   -2.1054    1.8092    2.3435 C   0  0  0  1  0  0  0  0  0  0  0  0
   -3.7732    0.9039    0.8612 O   0  0  0  1  0  0  0  0  0  0  0  0
   -4.4593    1.9452    2.7601 N   0  0  0  1  0  0  0  0  0  0  0  0
   -1.0526    0.0608    1.8054 H   0  0  0  1  0  0  0  0  0  0  0  0
   -0.9541    0.2168    3.7992 C   0  0  0  1  0  0  0  0  0  0  0  0
   -5.8908    1.9631    2.4986 C   0  0  0  1  0  0  0  0  0  0  0  0
   -0.0877   -1.0259    3.8640 C   0  0  0  1  0  0  0  0  0  0  0  0
   -1.2852    0.8112    4.8118 O   0  0  0  1  0  0  0  0  0  0  0  0
   -4.1530    2.2829    3.6276 H   0  0  0  1  0  0  0  0  0  0  0  0
   -6.1523    1.1262    1.8852 H   0  0  0  1  0  0  0  0  0  0  0  0
   -6.1496    2.8700    1.9933 H   0  0  0  1  0  0  0  0  0  0  0  0
   -6.4231    1.9060    3.4250 H   0  0  0  1  0  0  0  0  0  0  0  0
   -0.6044   -1.8456    3.4100 H   0  0  0  1  0  0  0  0  0  0  0  0
    0.1236   -1.2602    4.8864 H   0  0  0  1  0  0  0  0  0  0  0  0
    0.8290   -0.8490    3.3412 H   0  0  0  1  0  0  0  0  0  0  0  0
   -4.4032    8.2433    0.3789 I   0  0  0  1  0  0  0  0  0  0  0  0
   -3.4175    6.4271    0.6918 C   0  0  0  1  0  0  0  0  0  0  0  0
   -2.5641    6.2783    1.7740 C   0  0  0  1  0  0  0  0  0  0  0  0
   -1.9084    5.0788    1.9774 C   0  0  0  1  0  0  0  0  0  0  0  0
   -2.1083    4.0227    1.1021 C   0  0  0  1  0  0  0  0  0  0  0  0
   -2.9591    4.1708    0.0229 C   0  0  0  1  0  0  0  0  0  0  0  0
   -3.6167    5.3740   -0.1809 C   0  0  0  1  0  0  0  0  0  0  0  0
   -1.3965    2.7096    1.3270 C   0  0  0  1  0  0  0  0  0  0  0  0
   -2.4173    7.0693    2.4330 H   0  0  0  1  0  0  0  0  0  0  0  0
   -1.2651    4.9685    2.7871 H   0  0  0  1  0  0  0  0  0  0  0  0
   -3.1058    3.3797   -0.6360 H   0  0  0  1  0  0  0  0  0  0  0  0
   -4.2600    5.4843   -0.9906 H   0  0  0  1  0  0  0  0  0  0  0  0
   -1.3383    2.1895    0.3937 H   0  0  0  1  0  0  0  0  0  0  0  0
   -0.4088    2.9144    1.6839 H   0  0  0  1  0  0  0  0  0  0  0  0
  1  4  1  0  0  0  0
  2  4  1  0  0  0  0
  2  5  2  0  0  0  0
  2  6  1  0  0  0  0
  3  4  1  0  0  0  0
  3  7  1  0  0  0  0
  3  8  1  0  0  0  0
  4 26  1  0  0  0  0
  6  9  1  0  0  0  0
  6 12  1  0  0  0  0
  8 10  1  0  0  0  0
  8 11  2  0  0  0  0
  9 13  1  0  0  0  0
  9 14  1  0  0  0  0
  9 15  1  0  0  0  0
 10 16  1  0  0  0  0
 10 17  1  0  0  0  0
 10 18  1  0  0  0  0
 19 20  1  0  0  0  0
 20 21  4  0  0  0  0
 20 25  4  0  0  0  0
 21 22  4  0  0  0  0
 21 27  1  0  0  0  0
 22 23  4  0  0  0  0
 22 28  1  0  0  0  0
 23 24  4  0  0  0  0
 23 26  1  0  0  0  0
 24 25  4  0  0  0  0
 24 29  1  0  0  0  0
 25 30  1  0  0  0  0
 26 31  1  0  0  0  0
 26 32  1  0  0  0  0
M  END
> <BCLConfClusterSize>
1

> <ConfClashScore>
0 

> <ConfOneFourInteractionScore>
-0.978127 

> <ConfScore>
-0.0684579 

> <ConfScorePBest>
0.00541297 

> <ConfTolerance>
0.212447 

> <RosettaParamsInstructions>
M  ROOT 3
M  POLY_N_BB 3
M  POLY_CA_BB 4
M  POLY_C_BB 2
M  POLY_O_BB 5
M  POLY_IGNORE 9 10 11 12 13 14 15 16 17 18 
M  POLY_UPPER 6
M  POLY_LOWER 8
M  POLY_CHG 0
M  POLY_PROPERTIES ALPHA_AA L_AA PROTEIN AROMATIC POLYMER 
M  END

$$$$



 32 32  0  0  0  0  0  0  0  0999 V2000
    0.1359    3.3824    2.6623 H   0  0  0  1  0  0  0  0  0  0  0  0
    0.8768    1.6105    1.8195 C   0  0  0  1  0  0  0  0  0  0  0  0
    0.7656    3.8562    0.7936 N   0  0  0  1  0  0  0  0  0  0  0  0
    0.1123    2.9370    1.6897 C   0  0  0  1  0  0  0  0  0  0  0  0
    0.4911    0.7230    2.5794 O   0  0  0  1  0  0  0  0  0  0  0  0
    1.9703    1.4941    1.0608 N   0  0  0  1  0  0  0  0  0  0  0  0
    0.4634    3.8429   -0.1386 H   0  0  0  1  0  0  0  0  0  0  0  0
    1.7380    4.7260    1.0892 C   0  0  0  1  0  0  0  0  0  0  0  0
    2.7118    0.2422    1.0347 C   0  0  0  1  0  0  0  0  0  0  0  0
    2.2336    5.5770   -0.0639 C   0  0  0  1  0  0  0  0  0  0  0  0
    2.2124    4.8422    2.2184 O   0  0  0  1  0  0  0  0  0  0  0  0
    2.2737    2.2534    0.5206 H   0  0  0  1  0  0  0  0  0  0  0  0
    3.7375    0.4295    1.2751 H   0  0  0  1  0  0  0  0  0  0  0  0
    2.6478   -0.1897    0.0579 H   0  0  0  1  0  0  0  0  0  0  0  0
    2.2953   -0.4337    1.7521 H   0  0  0  1  0  0  0  0  0  0  0  0
    2.6146    4.9434   -0.8374 H   0  0  0  1  0  0  0  0  0  0  0  0
    3.0113    6.2260    0.2807 H   0  0  0  1  0  0  0  0  0  0  0  0
    1.4245    6.1619   -0.4486 H   0  0  0  1  0  0  0  0  0  0  0  0
   -4.4007    8.2454    0.3836 I   0  0  0  1  0  0  0  0  0  0  0  0
   -3.4178    6.4267    0.6912 C   0  0  0  1  0  0  0  0  0  0  0  0
   -2.5636    6.2739    1.7722 C   0  0  0  1  0  0  0  0  0  0  0  0
   -1.9097    5.0728    1.9721 C   0  0  0  1  0  0  0  0  0  0  0  0
   -2.1123    4.0191    1.0945 C   0  0  0  1  0  0  0  0  0  0  0  0
   -2.9639    4.1713    0.0166 C   0  0  0  1  0  0  0  0  0  0  0  0
   -3.6196    5.3760   -0.1838 C   0  0  0  1  0  0  0  0  0  0  0  0
   -1.3776    2.7270    1.3628 C   0  0  0  1  0  0  0  0  0  0  0  0
   -2.4148    7.0632    2.4329 H   0  0  0  1  0  0  0  0  0  0  0  0
   -1.2658    4.9596    2.7809 H   0  0  0  1  0  0  0  0  0  0  0  0
   -3.1127    3.3820   -0.6441 H   0  0  0  1  0  0  0  0  0  0  0  0
   -4.2635    5.4893   -0.9926 H   0  0  0  1  0  0  0  0  0  0  0  0
   -1.8425    2.2368    2.1925 H   0  0  0  1  0  0  0  0  0  0  0  0
   -1.4515    2.1065    0.4942 H   0  0  0  1  0  0  0  0  0  0  0  0
  1  4  1  0  0  0  0
  2  4  1  0  0  0  0
  2  5  2  0  0  0  0
  2  6  1  0  0  0  0
  3  4  1  0  0  0  0
  3  7  1  0  0  0  0
  3  8  1  0  0  0  0
  4 26  1  0  0  0  0
  6  9  1  0  0  0  0
  6 12  1  0  0  0  0
  8 10  1  0  0  0  0
  8 11  2  0  0  0  0
  9 13  1  0  0  0  0
  9 14  1  0  0  0  0
  9 15  1  0  0  0  0
 10 16  1  0  0  0  0
 10 17  1  0  0  0  0
 10 18  1  0  0  0  0
 19 20  1  0  0  0  0
 20 21  4  0  0  0  0
 20 25  4  0  0  0  0
 21 22  4  0  0  0  0
 21 27  1  0  0  0  0
 22 23  4  0  0  0  0
 22 28  1  0  0  0  0
 23 24  4  0  0  0  0
 23 26  1  0  0  0  0
 24 25  4  0  0  0  0
 24 29  1  0  0  0  0
 25 30  1  0  0  0  0
 26 31  1  0  0  0  0
 26 32  1  0  0  0  0
M  END
> <BCLConfClusterSize>
1

> <ConfClashScore>
0 

> <ConfOneFourInteractionScore>
-0.94165 

> <ConfScore>
-0.058176 

> <ConfScorePBest>
0.00538449 

> <ConfTolerance>
0.327281 

> <RosettaParamsInstructions>
M  ROOT 3
M  POLY_N_BB 3
M  POLY_CA_BB 4
M  POLY_C_BB 2
M  POLY_O_BB 5
M  POLY_IGNORE 9 10 11 12 13 14 15 16 17 18 
M  POLY_UPPER 6
M  POLY_LOWER 8
M  POLY_CHG 0
M  POLY_PROPERTIES ALPHA_AA L_AA PROTEIN AROMATIC POLYMER 
M  END

$$$$



 32 32  0  0  0  0  0  0  0  0999 V2000
    0.4977    1.8611    1.0291 H   0  0  0  1  0  0  0  0  0  0  0  0
   -0.0764    2.5712   -0.8506 C   0  0  0  1  0  0  0  0  0  0  0  0
    0.7669    3.9033    1.0532 N   0  0  0  1  0  0  0  0  0  0  0  0
   -0.0258    2.7186    0.6610 C   0  0  0  1  0  0  0  0  0  0  0  0
   -0.1405    1.4640   -1.3820 O   0  0  0  1  0  0  0  0  0  0  0  0
   -0.0466    3.7114   -1.5463 N   0  0  0  1  0  0  0  0  0  0  0  0
    0.3268    4.5788    1.6103 H   0  0  0  1  0  0  0  0  0  0  0  0
    2.0361    4.1219    0.7059 C   0  0  0  1  0  0  0  0  0  0  0  0
   -0.0082    3.7338   -3.0009 C   0  0  0  1  0  0  0  0  0  0  0  0
    2.6487    5.4084    1.2245 C   0  0  0  1  0  0  0  0  0  0  0  0
    2.6831    3.3427    0.0112 O   0  0  0  1  0  0  0  0  0  0  0  0
   -0.0508    4.5623   -1.0602 H   0  0  0  1  0  0  0  0  0  0  0  0
   -0.3774    2.8047   -3.3823 H   0  0  0  1  0  0  0  0  0  0  0  0
    1.0001    3.8781   -3.3286 H   0  0  0  1  0  0  0  0  0  0  0  0
   -0.6190    4.5349   -3.3613 H   0  0  0  1  0  0  0  0  0  0  0  0
    1.8713    6.1058    1.4570 H   0  0  0  1  0  0  0  0  0  0  0  0
    3.2894    5.8252    0.4757 H   0  0  0  1  0  0  0  0  0  0  0  0
    3.2178    5.2018    2.1068 H   0  0  0  1  0  0  0  0  0  0  0  0
   -4.4007    8.2454    0.3836 I   0  0  0  1  0  0  0  0  0  0  0  0
   -3.4178    6.4267    0.6912 C   0  0  0  1  0  0  0  0  0  0  0  0
   -2.5636    6.2739    1.7722 C   0  0  0  1  0  0  0  0  0  0  0  0
   -1.9097    5.0728    1.9721 C   0  0  0  1  0  0  0  0  0  0  0  0
   -2.1123    4.0191    1.0945 C   0  0  0  1  0  0  0  0  0  0  0  0
   -2.9639    4.1713    0.0166 C   0  0  0  1  0  0  0  0  0  0  0  0
   -3.6196    5.3760   -0.1838 C   0  0  0  1  0  0  0  0  0  0  0  0
   -1.3776    2.7270    1.3628 C   0  0  0  1  0  0  0  0  0  0  0  0
   -2.4148    7.0632    2.4329 H   0  0  0  1  0  0  0  0  0  0  0  0
   -1.2658    4.9596    2.7809 H   0  0  0  1  0  0  0  0  0  0  0  0
   -3.1127    3.3820   -0.6441 H   0  0  0  1  0  0  0  0  0  0  0  0
   -4.2635    5.4893   -0.9926 H   0  0  0  1  0  0  0  0  0  0  0  0
   -1.2263    2.6217    2.4168 H   0  0  0  1  0  0  0  0  0  0  0  0
   -1.9648    1.9082    1.0027 H   0  0  0  1  0  0  0  0  0  0  0  0
  1  4  1  0  0  0  0
  2  4  1  0  0  0  0
  2  5  2  0  0  0  0
  2  6  1  0  0  0  0
  3  4  1  0  0  0  0
  3  7  1  0  0  0  0
  3  8  1  0  0  0  0
  4 26  1  0  0  0  0
  6  9  1  0  0  0  0
  6 12  1  0  0  0  0
  8 10  1  0  0  0  0
  8 11  2  0  0  0  0
  9 13  1  0  0  0  0
  9 14  1  0  0  0  0
  9 15  1  0  0  0  0
 10 16  1  0  0  0  0
 10 17  1  0  0  0  0
 10 18  1  0  0  0  0
 19 20  1  0  0  0  0
 20 21  4  0  0  0  0
 20 25  4  0  0  0  0
 21 22  4  0  0  0  0
 21 27  1  0  0  0  0
 22 23  4  0  0  0  0
 22 28  1  0  0  0  0
 23 24  4  0  0  0  0
 23 26  1  0  0  0  0
 24 25  4  0  0  0  0
 24 29  1  0  0  0  0
 25 30  1  0  0  0  0
 26 31  1  0  0  0  0
 26 32  1  0  0  0  0
M  END
> <BCLConfClusterSize>
1

> <ConfClashScore>
0 

> <ConfOneFourInteractionScore>
-0.931937 

> <ConfScore>
-0.0580929 

> <ConfScorePBest>
0.00535601 

> <ConfTolerance>
0.219896 

> <RosettaParamsInstructions>
M  ROOT 3
M  POLY_N_BB 3
M  POLY_CA_BB 4
M  POLY_C_BB 2
M  POLY_O_BB 5
M  POLY_IGNORE 9 10 11 12 13 14 15 16 17 18 
M  POLY_UPPER 6
M  POLY_LOWER 8
M  POLY_CHG 0
M  POLY_PROPERTIES ALPHA_AA L_AA PROTEIN AROMATIC POLYMER 
M  END

$$$$



 32 32  0  0  0  0  0  0  0  0999 V2000
    0.2730    1.5896    0.6737 H   0  0  0  1  0  0  0  0  0  0  0  0
   -0.6078    2.4716   -1.0369 C   0  0  0  1  0  0  0  0  0  0  0  0
    0.8058    3.5838    0.5458 N   0  0  0  1  0  0  0  0  0  0  0  0
   -0.1847    2.5244    0.4255 C   0  0  0  1  0  0  0  0  0  0  0  0
   -1.0323    1.4364   -1.5484 O   0  0  0  1  0  0  0  0  0  0  0  0
   -0.4704    3.6357   -1.6779 N   0  0  0  1  0  0  0  0  0  0  0  0
    0.6491    4.3070    1.1883 H   0  0  0  1  0  0  0  0  0  0  0  0
    1.9213    3.6048   -0.1892 C   0  0  0  1  0  0  0  0  0  0  0  0
   -0.6994    3.7668   -3.1091 C   0  0  0  1  0  0  0  0  0  0  0  0
    2.8822    4.7404    0.1042 C   0  0  0  1  0  0  0  0  0  0  0  0
    2.1679    2.7721   -1.0461 O   0  0  0  1  0  0  0  0  0  0  0  0
   -0.2062    4.4289   -1.1666 H   0  0  0  1  0  0  0  0  0  0  0  0
   -0.4999    2.8319   -3.5898 H   0  0  0  1  0  0  0  0  0  0  0  0
   -0.0493    4.5179   -3.5067 H   0  0  0  1  0  0  0  0  0  0  0  0
   -1.7173    4.0469   -3.2830 H   0  0  0  1  0  0  0  0  0  0  0  0
    2.3342    5.5915    0.4508 H   0  0  0  1  0  0  0  0  0  0  0  0
    3.4131    4.9977   -0.7885 H   0  0  0  1  0  0  0  0  0  0  0  0
    3.5775    4.4333    0.8573 H   0  0  0  1  0  0  0  0  0  0  0  0
   -4.3790    8.2629    0.4232 I   0  0  0  1  0  0  0  0  0  0  0  0
   -3.4231    6.4223    0.6814 C   0  0  0  1  0  0  0  0  0  0  0  0
   -2.5710    6.2797    1.7654 C   0  0  0  1  0  0  0  0  0  0  0  0
   -1.9124    5.0827    1.9742 C   0  0  0  1  0  0  0  0  0  0  0  0
   -2.1081    4.0229    1.1024 C   0  0  0  1  0  0  0  0  0  0  0  0
   -2.9577    4.1649    0.0214 C   0  0  0  1  0  0  0  0  0  0  0  0
   -3.6181    5.3656   -0.1878 C   0  0  0  1  0  0  0  0  0  0  0  0
   -1.3932    2.7125    1.3331 C   0  0  0  1  0  0  0  0  0  0  0  0
   -2.4273    7.0735    2.4218 H   0  0  0  1  0  0  0  0  0  0  0  0
   -1.2701    4.9771    2.7853 H   0  0  0  1  0  0  0  0  0  0  0  0
   -3.1013    3.3710   -0.6349 H   0  0  0  1  0  0  0  0  0  0  0  0
   -4.2605    5.4712   -0.9989 H   0  0  0  1  0  0  0  0  0  0  0  0
   -1.0636    2.6790    2.3505 H   0  0  0  1  0  0  0  0  0  0  0  0
   -2.0814    1.9130    1.1541 H   0  0  0  1  0  0  0  0  0  0  0  0
  1  4  1  0  0  0  0
  2  4  1  0  0  0  0
  2  5  2  0  0  0  0
  2  6  1  0  0  0  0
  3  4  1  0  0  0  0
  3  7  1  0  0  0  0
  3  8  1  0  0  0  0
  4 26  1  0  0  0  0
  6  9  1  0  0  0  0
  6 12  1  0  0  0  0
  8 10  1  0  0  0  0
  8 11  2  0  0  0  0
  9 13  1  0  0  0  0
  9 14  1  0  0  0  0
  9 15  1  0  0  0  0
 10 16  1  0  0  0  0
 10 17  1  0  0  0  0
 10 18  1  0  0  0  0
 19 20  1  0  0  0  0
 20 21  4  0  0  0  0
 20 25  4  0  0  0  0
 21 22  4  0  0  0  0
 21 27  1  0  0  0  0
 22 23  4  0  0  0  0
 22 28  1  0  0  0  0
 23 24  4  0  0  0  0
 23 26  1  0  0  0  0
 24 25  4  0  0  0  0
 24 29  1  0  0  0  0
 25 30  1  0  0  0  0
 26 31  1  0  0  0  0
 26 32  1  0  0  0  0
M  END
> <BCLConfClusterSize>
1

> <ConfClashScore>
0 

> <ConfOneFourInteractionScore>
-0.931937 

> <ConfScore>
-0.0571805 

> <ConfScorePBest>
0.00532753 

> <ConfTolerance>
0.227547 

> <RosettaParamsInstructions>
M  ROOT 3
M  POLY_N_BB 3
M  POLY_CA_BB 4
M  POLY_C_BB 2
M  POLY_O_BB 5
M  POLY_IGNORE 9 10 11 12 13 14 15 16 17 18 
M  POLY_UPPER 6
M  POLY_LOWER 8
M  POLY_CHG 0
M  POLY_PROPERTIES ALPHA_AA L_AA PROTEIN AROMATIC POLYMER 
M  END

$$$$



 32 32  0  0  0  0  0  0  0  0999 V2000
   -2.9376    1.4464    0.5744 H   0  0  0  1  0  0  0  0  0  0  0  0
   -1.7495    0.3292    1.9275 C   0  0  0  1  0  0  0  0  0  0  0  0
   -3.4227    2.0151    2.5110 N   0  0  0  1  0  0  0  0  0  0  0  0
   -2.4464    1.6098    1.5108 C   0  0  0  1  0  0  0  0  0  0  0  0
   -1.5455   -0.5695    1.1281 O   0  0  0  1  0  0  0  0  0  0  0  0
   -1.3808    0.2587    3.2164 N   0  0  0  1  0  0  0  0  0  0  0  0
   -3.1079    2.4554    3.3280 H   0  0  0  1  0  0  0  0  0  0  0  0
   -4.7387    1.8068    2.3537 C   0  0  0  1  0  0  0  0  0  0  0  0
   -0.7893   -0.9629    3.7414 C   0  0  0  1  0  0  0  0  0  0  0  0
   -5.6351    2.4344    3.4033 C   0  0  0  1  0  0  0  0  0  0  0  0
   -5.2028    1.1568    1.4314 O   0  0  0  1  0  0  0  0  0  0  0  0
   -1.5103    1.0315    3.8050 H   0  0  0  1  0  0  0  0  0  0  0  0
   -1.4218   -1.3669    4.5041 H   0  0  0  1  0  0  0  0  0  0  0  0
    0.1728   -0.7438    4.1552 H   0  0  0  1  0  0  0  0  0  0  0  0
   -0.6840   -1.6763    2.9509 H   0  0  0  1  0  0  0  0  0  0  0  0
   -6.5761    2.6902    2.9628 H   0  0  0  1  0  0  0  0  0  0  0  0
   -5.1696    3.3179    3.7875 H   0  0  0  1  0  0  0  0  0  0  0  0
   -5.7923    1.7380    4.2004 H   0  0  0  1  0  0  0  0  0  0  0  0
   -4.4032    8.2433    0.3789 I   0  0  0  1  0  0  0  0  0  0  0  0
   -3.4175    6.4271    0.6918 C   0  0  0  1  0  0  0  0  0  0  0  0
   -2.5641    6.2783    1.7740 C   0  0  0  1  0  0  0  0  0  0  0  0
   -1.9084    5.0788    1.9774 C   0  0  0  1  0  0  0  0  0  0  0  0
   -2.1083    4.0227    1.1021 C   0  0  0  1  0  0  0  0  0  0  0  0
   -2.9591    4.1708    0.0229 C   0  0  0  1  0  0  0  0  0  0  0  0
   -3.6167    5.3740   -0.1809 C   0  0  0  1  0  0  0  0  0  0  0  0
   -1.3965    2.7096    1.3270 C   0  0  0  1  0  0  0  0  0  0  0  0
   -2.4173    7.0693    2.4330 H   0  0  0  1  0  0  0  0  0  0  0  0
   -1.2651    4.9685    2.7871 H   0  0  0  1  0  0  0  0  0  0  0  0
   -3.1058    3.3797   -0.6360 H   0  0  0  1  0  0  0  0  0  0  0  0
   -4.2600    5.4843   -0.9906 H   0  0  0  1  0  0  0  0  0  0  0  0
   -0.7820    2.4833    0.4808 H   0  0  0  1  0  0  0  0  0  0  0  0
   -0.7867    2.7758    2.2037 H   0  0  0  1  0  0  0  0  0  0  0  0
  1  4  1  0  0  0  0
  2  4  1  0  0  0  0
  2  5  2  0  0  0  0
  2  6  1  0  0  0  0
  3  4  1  0  0  0  0
  3  7  1  0  0  0  0
  3  8  1  0  0  0  0
  4 26  1  0  0  0  0
  6  9  1  0  0  0  0
  6 12  1  0  0  0  0
  8 10  1  0  0  0  0
  8 11  2  0  0  0  0
  9 13  1  0  0  0  0
  9 14  1  0  0  0  0
  9 15  1  0  0  0  0
 10 16  1  0  0  0  0
 10 17  1  0  0  0  0
 10 18  1  0  0  0  0
 19 20  1  0  0  0  0
 20 21  4  0  0  0  0
 20 25  4  0  0  0  0
 21 22  4  0  0  0  0
 21 27  1  0  0  0  0
 22 23  4  0  0  0  0
 22 28  1  0  0  0  0
 23 24  4  0  0  0  0
 23 26  1  0  0  0  0
 24 25  4  0  0  0  0
 24 29  1  0  0  0  0
 25 30  1  0  0  0  0
 26 31  1  0  0  0  0
 26 32  1  0  0  0  0
M  END
> <BCLConfClusterSize>
1

> <ConfClashScore>
0 

> <ConfOneFourInteractionScore>
-0.960318 

> <ConfScore>
-0.0531611 

> <ConfScorePBest>
0.00529905 

> <ConfTolerance>
0.390887 

> <RosettaParamsInstructions>
M  ROOT 3
M  POLY_N_BB 3
M  POLY_CA_BB 4
M  POLY_C_BB 2
M  POLY_O_BB 5
M  POLY_IGNORE 9 10 11 12 13 14 15 16 17 18 
M  POLY_UPPER 6
M  POLY_LOWER 8
M  POLY_CHG 0
M  POLY_PROPERTIES ALPHA_AA L_AA PROTEIN AROMATIC POLYMER 
M  END

$$$$



 32 32  0  0  0  0  0  0  0  0999 V2000
   -2.9991    1.5159    2.0128 H   0  0  0  1  0  0  0  0  0  0  0  0
   -1.1901    0.4589    2.3737 C   0  0  0  1  0  0  0  0  0  0  0  0
   -2.0228    2.3091    3.6644 N   0  0  0  1  0  0  0  0  0  0  0  0
   -2.0018    1.7485    2.3229 C   0  0  0  1  0  0  0  0  0  0  0  0
   -1.0425   -0.1705    1.3270 O   0  0  0  1  0  0  0  0  0  0  0  0
   -0.6797    0.0777    3.5546 N   0  0  0  1  0  0  0  0  0  0  0  0
   -1.1660    2.3984    4.1316 H   0  0  0  1  0  0  0  0  0  0  0  0
   -3.1205    2.7110    4.3070 C   0  0  0  1  0  0  0  0  0  0  0  0
    0.1409   -1.1209    3.6433 C   0  0  0  1  0  0  0  0  0  0  0  0
   -2.9023    3.2603    5.7034 C   0  0  0  1  0  0  0  0  0  0  0  0
   -4.2366    2.6482    3.8186 O   0  0  0  1  0  0  0  0  0  0  0  0
   -0.8598    0.6076    4.3591 H   0  0  0  1  0  0  0  0  0  0  0  0
   -0.4818   -1.9870    3.5600 H   0  0  0  1  0  0  0  0  0  0  0  0
    0.6489   -1.1362    4.5849 H   0  0  0  1  0  0  0  0  0  0  0  0
    0.8591   -1.1206    2.8500 H   0  0  0  1  0  0  0  0  0  0  0  0
   -2.3329    2.5598    6.2779 H   0  0  0  1  0  0  0  0  0  0  0  0
   -3.8492    3.4217    6.1749 H   0  0  0  1  0  0  0  0  0  0  0  0
   -2.3709    4.1871    5.6428 H   0  0  0  1  0  0  0  0  0  0  0  0
   -4.4032    8.2433    0.3789 I   0  0  0  1  0  0  0  0  0  0  0  0
   -3.4175    6.4271    0.6918 C   0  0  0  1  0  0  0  0  0  0  0  0
   -2.5641    6.2783    1.7740 C   0  0  0  1  0  0  0  0  0  0  0  0
   -1.9084    5.0788    1.9774 C   0  0  0  1  0  0  0  0  0  0  0  0
   -2.1083    4.0227    1.1021 C   0  0  0  1  0  0  0  0  0  0  0  0
   -2.9591    4.1708    0.0229 C   0  0  0  1  0  0  0  0  0  0  0  0
   -3.6167    5.3740   -0.1809 C   0  0  0  1  0  0  0  0  0  0  0  0
   -1.3965    2.7096    1.3270 C   0  0  0  1  0  0  0  0  0  0  0  0
   -2.4173    7.0693    2.4330 H   0  0  0  1  0  0  0  0  0  0  0  0
   -1.2651    4.9685    2.7871 H   0  0  0  1  0  0  0  0  0  0  0  0
   -3.1058    3.3797   -0.6360 H   0  0  0  1  0  0  0  0  0  0  0  0
   -4.2600    5.4843   -0.9906 H   0  0  0  1  0  0  0  0  0  0  0  0
   -1.3486    2.2058    0.3842 H   0  0  0  1  0  0  0  0  0  0  0  0
   -0.4057    2.9357    1.6618 H   0  0  0  1  0  0  0  0  0  0  0  0
  1  4  1  0  0  0  0
  2  4  1  0  0  0  0
  2  5  2  0  0  0  0
  2  6  1  0  0  0  0
  3  4  1  0  0  0  0
  3  7  1  0  0  0  0
  3  8  1  0  0  0  0
  4 26  1  0  0  0  0
  6  9  1  0  0  0  0
  6 12  1  0  0  0  0
  8 10  1  0  0  0  0
  8 11  2  0  0  0  0
  9 13  1  0  0  0  0
  9 14  1  0  0  0  0
  9 15  1  0  0  0  0
 10 16  1  0  0  0  0
 10 17  1  0  0  0  0
 10 18  1  0  0  0  0
 19 20  1  0  0  0  0
 20 21  4  0  0  0  0
 20 25  4  0  0  0  0
 21 22  4  0  0  0  0
 21 27  1  0  0  0  0
 22 23  4  0  0  0  0
 22 28  1  0  0  0  0
 23 24  4  0  0  0  0
 23 26  1  0  0  0  0
 24 25  4  0  0  0  0
 24 29  1  0  0  0  0
 25 30  1  0  0  0  0
 26 31  1  0  0  0  0
 26 32  1  0  0  0  0
M  END
> <BCLConfClusterSize>
1

> <ConfClashScore>
0 

> <ConfOneFourInteractionScore>
-0.946346 

> <ConfScore>
-0.0491726 

> <ConfScorePBest>
0.00527057 

> <ConfTolerance>
0.255455 

> <RosettaParamsInstructions>
M  ROOT 3
M  POLY_N_BB 3
M  POLY_CA_BB 4
M  POLY_C_BB 2
M  POLY_O_BB 5
M  POLY_IGNORE 9 10 11 12 13 14 15 16 17 18 
M  POLY_UPPER 6
M  POLY_LOWER 8
M  POLY_CHG 0
M  POLY_PROPERTIES ALPHA_AA L_AA PROTEIN AROMATIC POLYMER 
M  END

$$$$



 32 32  0  0  0  0  0  0  0  0999 V2000
   -1.6092    0.8645    2.3149 H   0  0  0  1  0  0  0  0  0  0  0  0
   -2.9962    2.2418    3.1494 C   0  0  0  1  0  0  0  0  0  0  0  0
   -3.2271    1.1167    1.0368 N   0  0  0  1  0  0  0  0  0  0  0  0
   -2.2419    1.6529    1.9641 C   0  0  0  1  0  0  0  0  0  0  0  0
   -4.1429    2.6622    3.0203 O   0  0  0  1  0  0  0  0  0  0  0  0
   -2.3673    2.2873    4.3421 N   0  0  0  1  0  0  0  0  0  0  0  0
   -4.1007    1.5556    0.9690 H   0  0  0  1  0  0  0  0  0  0  0  0
   -2.9820    0.0470    0.2749 C   0  0  0  1  0  0  0  0  0  0  0  0
   -3.0346    2.8667    5.4984 C   0  0  0  1  0  0  0  0  0  0  0  0
   -4.0916   -0.3505   -0.6790 C   0  0  0  1  0  0  0  0  0  0  0  0
   -1.9294   -0.5875    0.3297 O   0  0  0  1  0  0  0  0  0  0  0  0
   -1.4592    1.9295    4.4301 H   0  0  0  1  0  0  0  0  0  0  0  0
   -4.0782    2.6330    5.4627 H   0  0  0  1  0  0  0  0  0  0  0  0
   -2.9066    3.9289    5.4886 H   0  0  0  1  0  0  0  0  0  0  0  0
   -2.6097    2.4639    6.3940 H   0  0  0  1  0  0  0  0  0  0  0  0
   -3.6906   -0.9667   -1.4565 H   0  0  0  1  0  0  0  0  0  0  0  0
   -4.5244    0.5288   -1.1086 H   0  0  0  1  0  0  0  0  0  0  0  0
   -4.8429   -0.8941   -0.1451 H   0  0  0  1  0  0  0  0  0  0  0  0
   -4.3546    8.2570    0.3230 I   0  0  0  1  0  0  0  0  0  0  0  0
   -3.4384    6.4193    0.7122 C   0  0  0  1  0  0  0  0  0  0  0  0
   -2.5773    6.2714    1.7883 C   0  0  0  1  0  0  0  0  0  0  0  0
   -1.9077    5.0775    1.9788 C   0  0  0  1  0  0  0  0  0  0  0  0
   -2.1014    4.0259    1.0967 C   0  0  0  1  0  0  0  0  0  0  0  0
   -2.9601    4.1731    0.0237 C   0  0  0  1  0  0  0  0  0  0  0  0
   -3.6316    5.3707   -0.1673 C   0  0  0  1  0  0  0  0  0  0  0  0
   -1.3745    2.7188    1.3076 C   0  0  0  1  0  0  0  0  0  0  0  0
   -2.4350    7.0590    2.4524 H   0  0  0  1  0  0  0  0  0  0  0  0
   -1.2585    4.9680    2.7840 H   0  0  0  1  0  0  0  0  0  0  0  0
   -3.1023    3.3854   -0.6404 H   0  0  0  1  0  0  0  0  0  0  0  0
   -4.2807    5.4802   -0.9724 H   0  0  0  1  0  0  0  0  0  0  0  0
   -1.0476    2.3536    0.3564 H   0  0  0  1  0  0  0  0  0  0  0  0
   -0.5247    2.8987    1.9324 H   0  0  0  1  0  0  0  0  0  0  0  0
  1  4  1  0  0  0  0
  2  4  1  0  0  0  0
  2  5  2  0  0  0  0
  2  6  1  0  0  0  0
  3  4  1  0  0  0  0
  3  7  1  0  0  0  0
  3  8  1  0  0  0  0
  4 26  1  0  0  0  0
  6  9  1  0  0  0  0
  6 12  1  0  0  0  0
  8 10  1  0  0  0  0
  8 11  2  0  0  0  0
  9 13  1  0  0  0  0
  9 14  1  0  0  0  0
  9 15  1  0  0  0  0
 10 16  1  0  0  0  0
 10 17  1  0  0  0  0
 10 18  1  0  0  0  0
 19 20  1  0  0  0  0
 20 21  4  0  0  0  0
 20 25  4  0  0  0  0
 21 22  4  0  0  0  0
 21 27  1  0  0  0  0
 22 23  4  0  0  0  0
 22 28  1  0  0  0  0
 23 24  4  0  0  0  0
 23 26  1  0  0  0  0
 24 25  4  0  0  0  0
 24 29  1  0  0  0  0
 25 30  1  0  0  0  0
 26 31  1  0  0  0  0
 26 32  1  0  0  0  0
M  END
> <BCLConfClusterSize>
1

> <ConfClashScore>
0 

> <ConfOneFourInteractionScore>
-0.987258 

> <ConfScore>
-0.0477953 

> <ConfScorePBest>
0.00524209 

> <ConfTolerance>
0.366088 

> <RosettaParamsInstructions>
M  ROOT 3
M  POLY_N_BB 3
M  POLY_CA_BB 4
M  POLY_C_BB 2
M  POLY_O_BB 5
M  POLY_IGNORE 9 10 11 12 13 14 15 16 17 18 
M  POLY_UPPER 6
M  POLY_LOWER 8
M  POLY_CHG 0
M  POLY_PROPERTIES ALPHA_AA L_AA PROTEIN AROMATIC POLYMER 
M  END

$$$$



 32 32  0  0  0  0  0  0  0  0999 V2000
   -2.7578    1.5961    0.1253 H   0  0  0  1  0  0  0  0  0  0  0  0
   -1.0715    2.1888   -1.0477 C   0  0  0  1  0  0  0  0  0  0  0  0
   -1.1335    0.3867    0.6224 N   0  0  0  1  0  0  0  0  0  0  0  0
   -1.6980    1.6754    0.2503 C   0  0  0  1  0  0  0  0  0  0  0  0
   -1.7323    2.7000   -1.9319 O   0  0  0  1  0  0  0  0  0  0  0  0
    0.2539    2.0735   -1.2221 N   0  0  0  1  0  0  0  0  0  0  0  0
   -0.7512    0.2788    1.5183 H   0  0  0  1  0  0  0  0  0  0  0  0
   -1.1184   -0.6544   -0.2148 C   0  0  0  1  0  0  0  0  0  0  0  0
    0.8596    2.4519   -2.4901 C   0  0  0  1  0  0  0  0  0  0  0  0
   -0.6770   -1.9754    0.3847 C   0  0  0  1  0  0  0  0  0  0  0  0
   -1.4380   -0.5662   -1.3974 O   0  0  0  1  0  0  0  0  0  0  0  0
    0.8151    1.7338   -0.4941 H   0  0  0  1  0  0  0  0  0  0  0  0
    0.4132    1.8873   -3.2818 H   0  0  0  1  0  0  0  0  0  0  0  0
    1.9101    2.2510   -2.4573 H   0  0  0  1  0  0  0  0  0  0  0  0
    0.7009    3.4958   -2.6634 H   0  0  0  1  0  0  0  0  0  0  0  0
   -1.3864   -2.2876    1.1224 H   0  0  0  1  0  0  0  0  0  0  0  0
    0.2832   -1.8564    0.8415 H   0  0  0  1  0  0  0  0  0  0  0  0
   -0.6164   -2.7143   -0.3868 H   0  0  0  1  0  0  0  0  0  0  0  0
   -4.4032    8.2433    0.3789 I   0  0  0  1  0  0  0  0  0  0  0  0
   -3.4175    6.4271    0.6918 C   0  0  0  1  0  0  0  0  0  0  0  0
   -2.5641    6.2783    1.7740 C   0  0  0  1  0  0  0  0  0  0  0  0
   -1.9084    5.0788    1.9774 C   0  0  0  1  0  0  0  0  0  0  0  0
   -2.1083    4.0227    1.1021 C   0  0  0  1  0  0  0  0  0  0  0  0
   -2.9591    4.1708    0.0229 C   0  0  0  1  0  0  0  0  0  0  0  0
   -3.6167    5.3740   -0.1809 C   0  0  0  1  0  0  0  0  0  0  0  0
   -1.3965    2.7096    1.3270 C   0  0  0  1  0  0  0  0  0  0  0  0
   -2.4173    7.0693    2.4330 H   0  0  0  1  0  0  0  0  0  0  0  0
   -1.2651    4.9685    2.7871 H   0  0  0  1  0  0  0  0  0  0  0  0
   -3.1058    3.3797   -0.6360 H   0  0  0  1  0  0  0  0  0  0  0  0
   -4.2600    5.4843   -0.9906 H   0  0  0  1  0  0  0  0  0  0  0  0
   -0.3421    2.8914    1.3388 H   0  0  0  1  0  0  0  0  0  0  0  0
   -1.7015    2.3146    2.2735 H   0  0  0  1  0  0  0  0  0  0  0  0
  1  4  1  0  0  0  0
  2  4  1  0  0  0  0
  2  5  2  0  0  0  0
  2  6  1  0  0  0  0
  3  4  1  0  0  0  0
  3  7  1  0  0  0  0
  3  8  1  0  0  0  0
  4 26  1  0  0  0  0
  6  9  1  0  0  0  0
  6 12  1  0  0  0  0
  8 10  1  0  0  0  0
  8 11  2  0  0  0  0
  9 13  1  0  0  0  0
  9 14  1  0  0  0  0
  9 15  1  0  0  0  0
 10 16  1  0  0  0  0
 10 17  1  0  0  0  0
 10 18  1  0  0  0  0
 19 20  1  0  0  0  0
 20 21  4  0  0  0  0
 20 25  4  0  0  0  0
 21 22  4  0  0  0  0
 21 27  1  0  0  0  0
 22 23  4  0  0  0  0
 22 28  1  0  0  0  0
 23 24  4  0  0  0  0
 23 26  1  0  0  0  0
 24 25  4  0  0  0  0
 24 29  1  0  0  0  0
 25 30  1  0  0  0  0
 26 31  1  0  0  0  0
 26 32  1  0  0  0  0
M  END
> <BCLConfClusterSize>
1

> <ConfClashScore>
0 

> <ConfOneFourInteractionScore>
-0.952877 

> <ConfScore>
-0.043356 

> <ConfScorePBest>
0.00521361 

> <ConfTolerance>
0.494133 

> <RosettaParamsInstructions>
M  ROOT 3
M  POLY_N_BB 3
M  POLY_CA_BB 4
M  POLY_C_BB 2
M  POLY_O_BB 5
M  POLY_IGNORE 9 10 11 12 13 14 15 16 17 18 
M  POLY_UPPER 6
M  POLY_LOWER 8
M  POLY_CHG 0
M  POLY_PROPERTIES ALPHA_AA L_AA PROTEIN AROMATIC POLYMER 
M  END

$$$$



 32 32  0  0  0  0  0  0  0  0999 V2000
   -0.2736    2.7614   -0.3983 H   0  0  0  1  0  0  0  0  0  0  0  0
    0.9453    3.4122    1.2095 C   0  0  0  1  0  0  0  0  0  0  0  0
    0.3559    1.1365    0.7315 N   0  0  0  1  0  0  0  0  0  0  0  0
   -0.1241    2.5067    0.6301 C   0  0  0  1  0  0  0  0  0  0  0  0
    1.4417    3.1877    2.3011 O   0  0  0  1  0  0  0  0  0  0  0  0
    1.2987    4.4591    0.4472 N   0  0  0  1  0  0  0  0  0  0  0  0
   -0.2437    0.4752    1.1358 H   0  0  0  1  0  0  0  0  0  0  0  0
    1.5504    0.7131    0.3156 C   0  0  0  1  0  0  0  0  0  0  0  0
    2.2089    5.4921    0.9188 C   0  0  0  1  0  0  0  0  0  0  0  0
    1.8682   -0.7425    0.5974 C   0  0  0  1  0  0  0  0  0  0  0  0
    2.3546    1.4410   -0.2605 O   0  0  0  1  0  0  0  0  0  0  0  0
    0.9309    4.5303   -0.4584 H   0  0  0  1  0  0  0  0  0  0  0  0
    2.8930    5.0700    1.6251 H   0  0  0  1  0  0  0  0  0  0  0  0
    1.6487    6.2735    1.3884 H   0  0  0  1  0  0  0  0  0  0  0  0
    2.7542    5.8922    0.0897 H   0  0  0  1  0  0  0  0  0  0  0  0
    1.1159   -1.3638    0.1581 H   0  0  0  1  0  0  0  0  0  0  0  0
    1.8910   -0.9040    1.6549 H   0  0  0  1  0  0  0  0  0  0  0  0
    2.8218   -0.9868    0.1781 H   0  0  0  1  0  0  0  0  0  0  0  0
   -4.3956    8.2558    0.4368 I   0  0  0  1  0  0  0  0  0  0  0  0
   -3.4260    6.4208    0.6835 C   0  0  0  1  0  0  0  0  0  0  0  0
   -2.5689    6.2794    1.7637 C   0  0  0  1  0  0  0  0  0  0  0  0
   -1.9012    5.0861    1.9648 C   0  0  0  1  0  0  0  0  0  0  0  0
   -2.0929    4.0288    1.0891 C   0  0  0  1  0  0  0  0  0  0  0  0
   -2.9474    4.1695    0.0120 C   0  0  0  1  0  0  0  0  0  0  0  0
   -3.6170    5.3665   -0.1896 C   0  0  0  1  0  0  0  0  0  0  0  0
   -1.4386    2.6978    1.3753 C   0  0  0  1  0  0  0  0  0  0  0  0
   -2.4282    7.0714    2.4229 H   0  0  0  1  0  0  0  0  0  0  0  0
   -1.2551    4.9815    2.7730 H   0  0  0  1  0  0  0  0  0  0  0  0
   -3.0881    3.3775   -0.6472 H   0  0  0  1  0  0  0  0  0  0  0  0
   -4.2631    5.4711   -0.9978 H   0  0  0  1  0  0  0  0  0  0  0  0
   -1.2473    2.6312    2.4259 H   0  0  0  1  0  0  0  0  0  0  0  0
   -2.1114    1.9182    1.0846 H   0  0  0  1  0  0  0  0  0  0  0  0
  1  4  1  0  0  0  0
  2  4  1  0  0  0  0
  2  5  2  0  0  0  0
  2  6  1  0  0  0  0
  3  4  1  0  0  0  0
  3  7  1  0  0  0  0
  3  8  1  0  0  0  0
  4 26  1  0  0  0  0
  6  9  1  0  0  0  0
  6 12  1  0  0  0  0
  8 10  1  0  0  0  0
  8 11  2  0  0  0  0
  9 13  1  0  0  0  0
  9 14  1  0  0  0  0
  9 15  1  0  0  0  0
 10 16  1  0  0  0  0
 10 17  1  0  0  0  0
 10 18  1  0  0  0  0
 19 20  1  0  0  0  0
 20 21  4  0  0  0  0
 20 25  4  0  0  0  0
 21 22  4  0  0  0  0
 21 27  1  0  0  0  0
 22 23  4  0  0  0  0
 22 28  1  0  0  0  0
 23 24  4  0  0  0  0
 23 26  1  0  0  0  0
 24 25  4  0  0  0  0
 24 29  1  0  0  0  0
 25 30  1  0  0  0  0
 26 31  1  0  0  0  0
 26 32  1  0  0  0  0
M  END
> <BCLConfClusterSize>
1

> <ConfClashScore>
0 

> <ConfOneFourInteractionScore>
-0.978127 

> <ConfScore>
-0.0415582 

> <ConfScorePBest>
0.00518512 

> <ConfTolerance>
0.207963 

> <RosettaParamsInstructions>
M  ROOT 3
M  POLY_N_BB 3
M  POLY_CA_BB 4
M  POLY_C_BB 2
M  POLY_O_BB 5
M  POLY_IGNORE 9 10 11 12 13 14 15 16 17 18 
M  POLY_UPPER 6
M  POLY_LOWER 8
M  POLY_CHG 0
M  POLY_PROPERTIES ALPHA_AA L_AA PROTEIN AROMATIC POLYMER 
M  END

$$$$



 32 32  0  0  0  0  0  0  0  0999 V2000
   -1.8338    2.2640    3.3534 H   0  0  0  1  0  0  0  0  0  0  0  0
   -3.5003    1.6712    2.1779 C   0  0  0  1  0  0  0  0  0  0  0  0
   -1.4220    0.4807    2.3714 N   0  0  0  1  0  0  0  0  0  0  0  0
   -2.0017    1.8153    2.3967 C   0  0  0  1  0  0  0  0  0  0  0  0
   -3.9556    1.1197    1.1771 O   0  0  0  1  0  0  0  0  0  0  0  0
   -4.2427    2.1954    3.1659 N   0  0  0  1  0  0  0  0  0  0  0  0
   -0.8225    0.2394    1.6347 H   0  0  0  1  0  0  0  0  0  0  0  0
   -1.6781   -0.4254    3.3162 C   0  0  0  1  0  0  0  0  0  0  0  0
   -5.6973    2.1561    3.1500 C   0  0  0  1  0  0  0  0  0  0  0  0
   -0.9991   -1.7856    3.1534 C   0  0  0  1  0  0  0  0  0  0  0  0
   -2.3548   -0.1685    4.3111 O   0  0  0  1  0  0  0  0  0  0  0  0
   -3.7893    2.6194    3.9242 H   0  0  0  1  0  0  0  0  0  0  0  0
   -6.0458    2.2363    2.1415 H   0  0  0  1  0  0  0  0  0  0  0  0
   -6.0823    2.9715    3.7260 H   0  0  0  1  0  0  0  0  0  0  0  0
   -6.0335    1.2315    3.5707 H   0  0  0  1  0  0  0  0  0  0  0  0
   -1.4063   -2.2884    2.3012 H   0  0  0  1  0  0  0  0  0  0  0  0
   -1.1682   -2.3756    4.0298 H   0  0  0  1  0  0  0  0  0  0  0  0
    0.0526   -1.6446    3.0151 H   0  0  0  1  0  0  0  0  0  0  0  0
   -4.4032    8.2433    0.3789 I   0  0  0  1  0  0  0  0  0  0  0  0
   -3.4175    6.4271    0.6918 C   0  0  0  1  0  0  0  0  0  0  0  0
   -2.5641    6.2783    1.7740 C   0  0  0  1  0  0  0  0  0  0  0  0
   -1.9084    5.0788    1.9774 C   0  0  0  1  0  0  0  0  0  0  0  0
   -2.1083    4.0227    1.1021 C   0  0  0  1  0  0  0  0  0  0  0  0
   -2.9591    4.1708    0.0229 C   0  0  0  1  0  0  0  0  0  0  0  0
   -3.6167    5.3740   -0.1809 C   0  0  0  1  0  0  0  0  0  0  0  0
   -1.3965    2.7096    1.3270 C   0  0  0  1  0  0  0  0  0  0  0  0
   -2.4173    7.0693    2.4330 H   0  0  0  1  0  0  0  0  0  0  0  0
   -1.2651    4.9685    2.7871 H   0  0  0  1  0  0  0  0  0  0  0  0
   -3.1058    3.3797   -0.6360 H   0  0  0  1  0  0  0  0  0  0  0  0
   -4.2600    5.4843   -0.9906 H   0  0  0  1  0  0  0  0  0  0  0  0
   -1.4012    2.1692    0.4035 H   0  0  0  1  0  0  0  0  0  0  0  0
   -0.3872    2.9253    1.6094 H   0  0  0  1  0  0  0  0  0  0  0  0
  1  4  1  0  0  0  0
  2  4  1  0  0  0  0
  2  5  2  0  0  0  0
  2  6  1  0  0  0  0
  3  4  1  0  0  0  0
  3  7  1  0  0  0  0
  3  8  1  0  0  0  0
  4 26  1  0  0  0  0
  6  9  1  0  0  0  0
  6 12  1  0  0  0  0
  8 10  1  0  0  0  0
  8 11  2  0  0  0  0
  9 13  1  0  0  0  0
  9 14  1  0  0  0  0
  9 15  1  0  0  0  0
 10 16  1  0  0  0  0
 10 17  1  0  0  0  0
 10 18  1  0  0  0  0
 19 20  1  0  0  0  0
 20 21  4  0  0  0  0
 20 25  4  0  0  0  0
 21 22  4  0  0  0  0
 21 27  1  0  0  0  0
 22 23  4  0  0  0  0
 22 28  1  0  0  0  0
 23 24  4  0  0  0  0
 23 26  1  0  0  0  0
 24 25  4  0  0  0  0
 24 29  1  0  0  0  0
 25 30  1  0  0  0  0
 26 31  1  0  0  0  0
 26 32  1  0  0  0  0
M  END
> <BCLConfClusterSize>
1

> <ConfClashScore>
0 

> <ConfOneFourInteractionScore>
-0.985807 

> <ConfScore>
-0.0393906 

> <ConfScorePBest>
0.00515664 

> <ConfTolerance>
0.210678 

> <RosettaParamsInstructions>
M  ROOT 3
M  POLY_N_BB 3
M  POLY_CA_BB 4
M  POLY_C_BB 2
M  POLY_O_BB 5
M  POLY_IGNORE 9 10 11 12 13 14 15 16 17 18 
M  POLY_UPPER 6
M  POLY_LOWER 8
M  POLY_CHG 0
M  POLY_PROPERTIES ALPHA_AA L_AA PROTEIN AROMATIC POLYMER 
M  END

$$$$



 32 32  0  0  0  0  0  0  0  0999 V2000
   -1.2915    0.9150    2.3231 H   0  0  0  1  0  0  0  0  0  0  0  0
   -2.4407    2.1820    3.5361 C   0  0  0  1  0  0  0  0  0  0  0  0
   -3.1706    1.0427    1.5062 N   0  0  0  1  0  0  0  0  0  0  0  0
   -2.0220    1.6790    2.1570 C   0  0  0  1  0  0  0  0  0  0  0  0
   -1.6069    2.4240    4.4077 O   0  0  0  1  0  0  0  0  0  0  0  0
   -3.7608    2.3380    3.7240 N   0  0  0  1  0  0  0  0  0  0  0  0
   -3.4226    1.3029    0.5956 H   0  0  0  1  0  0  0  0  0  0  0  0
   -3.8778    0.1047    2.1543 C   0  0  0  1  0  0  0  0  0  0  0  0
   -4.3208    2.7493    5.0027 C   0  0  0  1  0  0  0  0  0  0  0  0
   -5.0553   -0.4746    1.3947 C   0  0  0  1  0  0  0  0  0  0  0  0
   -3.6036   -0.2739    3.2923 O   0  0  0  1  0  0  0  0  0  0  0  0
   -4.3685    2.1689    2.9739 H   0  0  0  1  0  0  0  0  0  0  0  0
   -4.0386    2.0467    5.7587 H   0  0  0  1  0  0  0  0  0  0  0  0
   -5.3877    2.7849    4.9296 H   0  0  0  1  0  0  0  0  0  0  0  0
   -3.9478    3.7186    5.2598 H   0  0  0  1  0  0  0  0  0  0  0  0
   -5.3893    0.2301    0.6621 H   0  0  0  1  0  0  0  0  0  0  0  0
   -5.8521   -0.6834    2.0776 H   0  0  0  1  0  0  0  0  0  0  0  0
   -4.7555   -1.3792    0.9083 H   0  0  0  1  0  0  0  0  0  0  0  0
   -4.3863    8.2498    0.3656 I   0  0  0  1  0  0  0  0  0  0  0  0
   -3.4144    6.4282    0.6898 C   0  0  0  1  0  0  0  0  0  0  0  0
   -2.5661    6.2780    1.7758 C   0  0  0  1  0  0  0  0  0  0  0  0
   -1.9195    5.0749    1.9867 C   0  0  0  1  0  0  0  0  0  0  0  0
   -2.1235    4.0165    1.1151 C   0  0  0  1  0  0  0  0  0  0  0  0
   -2.9693    4.1659    0.0322 C   0  0  0  1  0  0  0  0  0  0  0  0
   -3.6177    5.3728   -0.1792 C   0  0  0  1  0  0  0  0  0  0  0  0
   -1.3527    2.7287    1.2851 C   0  0  0  1  0  0  0  0  0  0  0  0
   -2.4162    7.0709    2.4319 H   0  0  0  1  0  0  0  0  0  0  0  0
   -1.2800    4.9636    2.7992 H   0  0  0  1  0  0  0  0  0  0  0  0
   -3.1191    3.3731   -0.6239 H   0  0  0  1  0  0  0  0  0  0  0  0
   -4.2572    5.4840   -0.9917 H   0  0  0  1  0  0  0  0  0  0  0  0
   -1.2014    2.3040    0.3146 H   0  0  0  1  0  0  0  0  0  0  0  0
   -0.4056    2.9662    1.7226 H   0  0  0  1  0  0  0  0  0  0  0  0
  1  4  1  0  0  0  0
  2  4  1  0  0  0  0
  2  5  2  0  0  0  0
  2  6  1  0  0  0  0
  3  4  1  0  0  0  0
  3  7  1  0  0  0  0
  3  8  1  0  0  0  0
  4 26  1  0  0  0  0
  6  9  1  0  0  0  0
  6 12  1  0  0  0  0
  8 10  1  0  0  0  0
  8 11  2  0  0  0  0
  9 13  1  0  0  0  0
  9 14  1  0  0  0  0
  9 15  1  0  0  0  0
 10 16  1  0  0  0  0
 10 17  1  0  0  0  0
 10 18  1  0  0  0  0
 19 20  1  0  0  0  0
 20 21  4  0  0  0  0
 20 25  4  0  0  0  0
 21 22  4  0  0  0  0
 21 27  1  0  0  0  0
 22 23  4  0  0  0  0
 22 28  1  0  0  0  0
 23 24  4  0  0  0  0
 23 26  1  0  0  0  0
 24 25  4  0  0  0  0
 24 29  1  0  0  0  0
 25 30  1  0  0  0  0
 26 31  1  0  0  0  0
 26 32  1  0  0  0  0
M  END
> <BCLConfClusterSize>
1

> <ConfClashScore>
0 

> <ConfOneFourInteractionScore>
-0.957074 

> <ConfScore>
-0.0353295 

> <ConfScorePBest>
0.00512816 

> <ConfTolerance>
0.291548 

> <RosettaParamsInstructions>
M  ROOT 3
M  POLY_N_BB 3
M  POLY_CA_BB 4
M  POLY_C_BB 2
M  POLY_O_BB 5
M  POLY_IGNORE 9 10 11 12 13 14 15 16 17 18 
M  POLY_UPPER 6
M  POLY_LOWER 8
M  POLY_CHG 0
M  POLY_PROPERTIES ALPHA_AA L_AA PROTEIN AROMATIC POLYMER 
M  END

$$$$



 32 32  0  0  0  0  0  0  0  0999 V2000
   -2.8933    2.1474    2.7984 H   0  0  0  1  0  0  0  0  0  0  0  0
   -3.6347    1.4324    0.9466 C   0  0  0  1  0  0  0  0  0  0  0  0
   -1.7979    0.4734    2.2748 N   0  0  0  1  0  0  0  0  0  0  0  0
   -2.4851    1.7045    1.9140 C   0  0  0  1  0  0  0  0  0  0  0  0
   -3.4452    0.9177   -0.1432 O   0  0  0  1  0  0  0  0  0  0  0  0
   -4.8348    1.8104    1.4147 N   0  0  0  1  0  0  0  0  0  0  0  0
   -1.1570    0.0867    1.6423 H   0  0  0  1  0  0  0  0  0  0  0  0
   -2.0099   -0.1468    3.4366 C   0  0  0  1  0  0  0  0  0  0  0  0
   -6.0243    1.8329    0.5765 C   0  0  0  1  0  0  0  0  0  0  0  0
   -1.2510   -1.4439    3.6389 C   0  0  0  1  0  0  0  0  0  0  0  0
   -2.7676    0.2895    4.2991 O   0  0  0  1  0  0  0  0  0  0  0  0
   -4.9125    2.0807    2.3534 H   0  0  0  1  0  0  0  0  0  0  0  0
   -5.7429    2.0250   -0.4378 H   0  0  0  1  0  0  0  0  0  0  0  0
   -6.6845    2.6037    0.9154 H   0  0  0  1  0  0  0  0  0  0  0  0
   -6.5199    0.8864    0.6358 H   0  0  0  1  0  0  0  0  0  0  0  0
   -0.5860   -1.3425    4.4711 H   0  0  0  1  0  0  0  0  0  0  0  0
   -0.6874   -1.6682    2.7576 H   0  0  0  1  0  0  0  0  0  0  0  0
   -1.9441   -2.2361    3.8310 H   0  0  0  1  0  0  0  0  0  0  0  0
   -4.4473    8.2109    0.3411 I   0  0  0  1  0  0  0  0  0  0  0  0
   -3.4141    6.4310    0.7056 C   0  0  0  1  0  0  0  0  0  0  0  0
   -2.5551    6.2806    1.7831 C   0  0  0  1  0  0  0  0  0  0  0  0
   -1.8915    5.0837    1.9762 C   0  0  0  1  0  0  0  0  0  0  0  0
   -2.0892    4.0319    1.0954 C   0  0  0  1  0  0  0  0  0  0  0  0
   -2.9456    4.1816    0.0210 C   0  0  0  1  0  0  0  0  0  0  0  0
   -3.6111    5.3821   -0.1726 C   0  0  0  1  0  0  0  0  0  0  0  0
   -1.4648    2.6765    1.3291 C   0  0  0  1  0  0  0  0  0  0  0  0
   -2.4099    7.0685    2.4462 H   0  0  0  1  0  0  0  0  0  0  0  0
   -1.2439    4.9723    2.7824 H   0  0  0  1  0  0  0  0  0  0  0  0
   -3.0908    3.3937   -0.6421 H   0  0  0  1  0  0  0  0  0  0  0  0
   -4.2587    5.4935   -0.9787 H   0  0  0  1  0  0  0  0  0  0  0  0
   -1.1061    2.2902    0.3979 H   0  0  0  1  0  0  0  0  0  0  0  0
   -0.6473    2.7798    2.0116 H   0  0  0  1  0  0  0  0  0  0  0  0
  1  4  1  0  0  0  0
  2  4  1  0  0  0  0
  2  5  2  0  0  0  0
  2  6  1  0  0  0  0
  3  4  1  0  0  0  0
  3  7  1  0  0  0  0
  3  8  1  0  0  0  0
  4 26  1  0  0  0  0
  6  9  1  0  0  0  0
  6 12  1  0  0  0  0
  8 10  1  0  0  0  0
  8 11  2  0  0  0  0
  9 13  1  0  0  0  0
  9 14  1  0  0  0  0
  9 15  1  0  0  0  0
 10 16  1  0  0  0  0
 10 17  1  0  0  0  0
 10 18  1  0  0  0  0
 19 20  1  0  0  0  0
 20 21  4  0  0  0  0
 20 25  4  0  0  0  0
 21 22  4  0  0  0  0
 21 27  1  0  0  0  0
 22 23  4  0  0  0  0
 22 28  1  0  0  0  0
 23 24  4  0  0  0  0
 23 26  1  0  0  0  0
 24 25  4  0  0  0  0
 24 29  1  0  0  0  0
 25 30  1  0  0  0  0
 26 31  1  0  0  0  0
 26 32  1  0  0  0  0
M  END
> <BCLConfClusterSize>
1

> <ConfClashScore>
0 

> <ConfOneFourInteractionScore>
-0.978127 

> <ConfScore>
-0.0351565 

> <ConfScorePBest>
0.00509968 

> <ConfTolerance>
0.250377 

> <RosettaParamsInstructions>
M  ROOT 3
M  POLY_N_BB 3
M  POLY_CA_BB 4
M  POLY_C_BB 2
M  POLY_O_BB 5
M  POLY_IGNORE 9 10 11 12 13 14 15 16 17 18 
M  POLY_UPPER 6
M  POLY_LOWER 8
M  POLY_CHG 0
M  POLY_PROPERTIES ALPHA_AA L_AA PROTEIN AROMATIC POLYMER 
M  END

$$$$



 32 32  0  0  0  0  0  0  0  0999 V2000
   -2.2973    2.3102    3.1905 H   0  0  0  1  0  0  0  0  0  0  0  0
   -0.8344    0.8219    2.9299 C   0  0  0  1  0  0  0  0  0  0  0  0
   -0.4397    3.1228    3.5525 N   0  0  0  1  0  0  0  0  0  0  0  0
   -1.3119    2.2529    2.7775 C   0  0  0  1  0  0  0  0  0  0  0  0
   -1.6285   -0.1004    3.1098 O   0  0  0  1  0  0  0  0  0  0  0  0
    0.4934    0.6391    2.8554 N   0  0  0  1  0  0  0  0  0  0  0  0
    0.0760    3.8243    3.1028 H   0  0  0  1  0  0  0  0  0  0  0  0
   -0.3409    2.9672    4.8736 C   0  0  0  1  0  0  0  0  0  0  0  0
    1.0473   -0.7067    2.8622 C   0  0  0  1  0  0  0  0  0  0  0  0
    0.7336    3.8181    5.5469 C   0  0  0  1  0  0  0  0  0  0  0  0
   -0.9986    2.1535    5.5167 O   0  0  0  1  0  0  0  0  0  0  0  0
    1.0911    1.4135    2.7962 H   0  0  0  1  0  0  0  0  0  0  0  0
    0.7723   -1.2015    3.7702 H   0  0  0  1  0  0  0  0  0  0  0  0
    2.1138   -0.6535    2.7942 H   0  0  0  1  0  0  0  0  0  0  0  0
    0.6630   -1.2545    2.0273 H   0  0  0  1  0  0  0  0  0  0  0  0
    1.4940    4.0623    4.8348 H   0  0  0  1  0  0  0  0  0  0  0  0
    1.1668    3.2696    6.3570 H   0  0  0  1  0  0  0  0  0  0  0  0
    0.2927    4.7186    5.9206 H   0  0  0  1  0  0  0  0  0  0  0  0
   -4.4032    8.2433    0.3789 I   0  0  0  1  0  0  0  0  0  0  0  0
   -3.4175    6.4271    0.6918 C   0  0  0  1  0  0  0  0  0  0  0  0
   -2.5641    6.2783    1.7740 C   0  0  0  1  0  0  0  0  0  0  0  0
   -1.9084    5.0788    1.9774 C   0  0  0  1  0  0  0  0  0  0  0  0
   -2.1083    4.0227    1.1021 C   0  0  0  1  0  0  0  0  0  0  0  0
   -2.9591    4.1708    0.0229 C   0  0  0  1  0  0  0  0  0  0  0  0
   -3.6167    5.3740   -0.1809 C   0  0  0  1  0  0  0  0  0  0  0  0
   -1.3965    2.7096    1.3270 C   0  0  0  1  0  0  0  0  0  0  0  0
   -2.4173    7.0693    2.4330 H   0  0  0  1  0  0  0  0  0  0  0  0
   -1.2651    4.9685    2.7871 H   0  0  0  1  0  0  0  0  0  0  0  0
   -3.1058    3.3797   -0.6360 H   0  0  0  1  0  0  0  0  0  0  0  0
   -4.2600    5.4843   -0.9906 H   0  0  0  1  0  0  0  0  0  0  0  0
   -1.9139    1.9545    0.7729 H   0  0  0  1  0  0  0  0  0  0  0  0
   -0.3988    2.8066    0.9528 H   0  0  0  1  0  0  0  0  0  0  0  0
  1  4  1  0  0  0  0
  2  4  1  0  0  0  0
  2  5  2  0  0  0  0
  2  6  1  0  0  0  0
  3  4  1  0  0  0  0
  3  7  1  0  0  0  0
  3  8  1  0  0  0  0
  4 26  1  0  0  0  0
  6  9  1  0  0  0  0
  6 12  1  0  0  0  0
  8 10  1  0  0  0  0
  8 11  2  0  0  0  0
  9 13  1  0  0  0  0
  9 14  1  0  0  0  0
  9 15  1  0  0  0  0
 10 16  1  0  0  0  0
 10 17  1  0  0  0  0
 10 18  1  0  0  0  0
 19 20  1  0  0  0  0
 20 21  4  0  0  0  0
 20 25  4  0  0  0  0
 21 22  4  0  0  0  0
 21 27  1  0  0  0  0
 22 23  4  0  0  0  0
 22 28  1  0  0  0  0
 23 24  4  0  0  0  0
 23 26  1  0  0  0  0
 24 25  4  0  0  0  0
 24 29  1  0  0  0  0
 25 30  1  0  0  0  0
 26 31  1  0  0  0  0
 26 32  1  0  0  0  0
M  END
> <BCLConfClusterSize>
1

> <ConfClashScore>
0 

> <ConfOneFourInteractionScore>
-0.956443 

> <ConfScore>
-0.0339052 

> <ConfScorePBest>
0.0050712 

> <ConfTolerance>
0.457994 

> <RosettaParamsInstructions>
M  ROOT 3
M  POLY_N_BB 3
M  POLY_CA_BB 4
M  POLY_C_BB 2
M  POLY_O_BB 5
M  POLY_IGNORE 9 10 11 12 13 14 15 16 17 18 
M  POLY_UPPER 6
M  POLY_LOWER 8
M  POLY_CHG 0
M  POLY_PROPERTIES ALPHA_AA L_AA PROTEIN AROMATIC POLYMER 
M  END

$$$$



 32 32  0  0  0  0  0  0  0  0999 V2000
   -0.0291    3.1142   -0.2603 H   0  0  0  1  0  0  0  0  0  0  0  0
    0.9066    3.4761    1.6064 C   0  0  0  1  0  0  0  0  0  0  0  0
    0.4588    1.2906    0.6038 N   0  0  0  1  0  0  0  0  0  0  0  0
   -0.0088    2.6646    0.7104 C   0  0  0  1  0  0  0  0  0  0  0  0
    1.0910    3.1525    2.7790 O   0  0  0  1  0  0  0  0  0  0  0  0
    1.5081    4.5557    1.0822 N   0  0  0  1  0  0  0  0  0  0  0  0
   -0.1094    0.5697    0.9469 H   0  0  0  1  0  0  0  0  0  0  0  0
    1.6358    0.9779    0.0543 C   0  0  0  1  0  0  0  0  0  0  0  0
    2.2697    5.5273    1.8590 C   0  0  0  1  0  0  0  0  0  0  0  0
    1.9247   -0.5041   -0.0852 C   0  0  0  1  0  0  0  0  0  0  0  0
    2.4462    1.8244   -0.3205 O   0  0  0  1  0  0  0  0  0  0  0  0
    1.4306    4.7002    0.1160 H   0  0  0  1  0  0  0  0  0  0  0  0
    2.5167    5.1080    2.8119 H   0  0  0  1  0  0  0  0  0  0  0  0
    1.6821    6.4104    1.9997 H   0  0  0  1  0  0  0  0  0  0  0  0
    3.1689    5.7763    1.3352 H   0  0  0  1  0  0  0  0  0  0  0  0
    1.8750   -0.9697    0.8769 H   0  0  0  1  0  0  0  0  0  0  0  0
    2.9032   -0.6393   -0.4965 H   0  0  0  1  0  0  0  0  0  0  0  0
    1.1998   -0.9489   -0.7344 H   0  0  0  1  0  0  0  0  0  0  0  0
   -4.4059    8.2409    0.3740 I   0  0  0  1  0  0  0  0  0  0  0  0
   -3.4171    6.4273    0.6924 C   0  0  0  1  0  0  0  0  0  0  0  0
   -2.5646    6.2828    1.7759 C   0  0  0  1  0  0  0  0  0  0  0  0
   -1.9069    5.0850    1.9830 C   0  0  0  1  0  0  0  0  0  0  0  0
   -2.1039    4.0264    1.1101 C   0  0  0  1  0  0  0  0  0  0  0  0
   -2.9538    4.1702    0.0297 C   0  0  0  1  0  0  0  0  0  0  0  0
   -3.6134    5.3716   -0.1778 C   0  0  0  1  0  0  0  0  0  0  0  0
   -1.4177    2.6926    1.2883 C   0  0  0  1  0  0  0  0  0  0  0  0
   -2.4200    7.0758    2.4331 H   0  0  0  1  0  0  0  0  0  0  0  0
   -1.2643    4.9780    2.7937 H   0  0  0  1  0  0  0  0  0  0  0  0
   -3.0984    3.3772   -0.6274 H   0  0  0  1  0  0  0  0  0  0  0  0
   -4.2560    5.4787   -0.9885 H   0  0  0  1  0  0  0  0  0  0  0  0
   -1.3610    2.4758    2.3346 H   0  0  0  1  0  0  0  0  0  0  0  0
   -2.0015    1.9412    0.7990 H   0  0  0  1  0  0  0  0  0  0  0  0
  1  4  1  0  0  0  0
  2  4  1  0  0  0  0
  2  5  2  0  0  0  0
  2  6  1  0  0  0  0
  3  4  1  0  0  0  0
  3  7  1  0  0  0  0
  3  8  1  0  0  0  0
  4 26  1  0  0  0  0
  6  9  1  0  0  0  0
  6 12  1  0  0  0  0
  8 10  1  0  0  0  0
  8 11  2  0  0  0  0
  9 13  1  0  0  0  0
  9 14  1  0  0  0  0
  9 15  1  0  0  0  0
 10 16  1  0  0  0  0
 10 17  1  0  0  0  0
 10 18  1  0  0  0  0
 19 20  1  0  0  0  0
 20 21  4  0  0  0  0
 20 25  4  0  0  0  0
 21 22  4  0  0  0  0
 21 27  1  0  0  0  0
 22 23  4  0  0  0  0
 22 28  1  0  0  0  0
 23 24  4  0  0  0  0
 23 26  1  0  0  0  0
 24 25  4  0  0  0  0
 24 29  1  0  0  0  0
 25 30  1  0  0  0  0
 26 31  1  0  0  0  0
 26 32  1  0  0  0  0
M  END
> <BCLConfClusterSize>
1

> <ConfClashScore>
0 

> <ConfOneFourInteractionScore>
-0.978127 

> <ConfScore>
-0.0328146 

> <ConfScorePBest>
0.00504272 

> <ConfTolerance>
0.273457 

> <RosettaParamsInstructions>
M  ROOT 3
M  POLY_N_BB 3
M  POLY_CA_BB 4
M  POLY_C_BB 2
M  POLY_O_BB 5
M  POLY_IGNORE 9 10 11 12 13 14 15 16 17 18 
M  POLY_UPPER 6
M  POLY_LOWER 8
M  POLY_CHG 0
M  POLY_PROPERTIES ALPHA_AA L_AA PROTEIN AROMATIC POLYMER 
M  END

$$$$



 32 32  0  0  0  0  0  0  0  0999 V2000
    0.2968    1.6130    0.6707 H   0  0  0  1  0  0  0  0  0  0  0  0
   -0.8319    2.2064   -1.0219 C   0  0  0  1  0  0  0  0  0  0  0  0
    0.6294    3.6327    0.3243 N   0  0  0  1  0  0  0  0  0  0  0  0
   -0.2518    2.4749    0.3531 C   0  0  0  1  0  0  0  0  0  0  0  0
   -1.0774    1.0590   -1.3899 O   0  0  0  1  0  0  0  0  0  0  0  0
   -1.0683    3.2551   -1.8215 N   0  0  0  1  0  0  0  0  0  0  0  0
    0.3254    4.4450    0.7807 H   0  0  0  1  0  0  0  0  0  0  0  0
    1.8216    3.6718   -0.2774 C   0  0  0  1  0  0  0  0  0  0  0  0
   -1.7090    3.2432   -3.1281 C   0  0  0  1  0  0  0  0  0  0  0  0
    2.5449    4.9981   -0.2167 C   0  0  0  1  0  0  0  0  0  0  0  0
    2.3155    2.7008   -0.8493 O   0  0  0  1  0  0  0  0  0  0  0  0
   -0.7766    4.1294   -1.4887 H   0  0  0  1  0  0  0  0  0  0  0  0
   -2.6450    2.7290   -3.0623 H   0  0  0  1  0  0  0  0  0  0  0  0
   -1.0761    2.7428   -3.8309 H   0  0  0  1  0  0  0  0  0  0  0  0
   -1.8769    4.2492   -3.4519 H   0  0  0  1  0  0  0  0  0  0  0  0
    2.8922    5.1702    0.7806 H   0  0  0  1  0  0  0  0  0  0  0  0
    1.8753    5.7826   -0.5013 H   0  0  0  1  0  0  0  0  0  0  0  0
    3.3792    4.9801   -0.8864 H   0  0  0  1  0  0  0  0  0  0  0  0
   -4.3790    8.2629    0.4232 I   0  0  0  1  0  0  0  0  0  0  0  0
   -3.4231    6.4223    0.6814 C   0  0  0  1  0  0  0  0  0  0  0  0
   -2.5710    6.2797    1.7654 C   0  0  0  1  0  0  0  0  0  0  0  0
   -1.9124    5.0827    1.9742 C   0  0  0  1  0  0  0  0  0  0  0  0
   -2.1081    4.0229    1.1024 C   0  0  0  1  0  0  0  0  0  0  0  0
   -2.9577    4.1649    0.0214 C   0  0  0  1  0  0  0  0  0  0  0  0
   -3.6181    5.3656   -0.1878 C   0  0  0  1  0  0  0  0  0  0  0  0
   -1.3932    2.7125    1.3331 C   0  0  0  1  0  0  0  0  0  0  0  0
   -2.4273    7.0735    2.4218 H   0  0  0  1  0  0  0  0  0  0  0  0
   -1.2701    4.9771    2.7853 H   0  0  0  1  0  0  0  0  0  0  0  0
   -3.1013    3.3710   -0.6349 H   0  0  0  1  0  0  0  0  0  0  0  0
   -4.2605    5.4712   -0.9989 H   0  0  0  1  0  0  0  0  0  0  0  0
   -0.9950    2.7121    2.3263 H   0  0  0  1  0  0  0  0  0  0  0  0
   -2.1006    1.9162    1.2316 H   0  0  0  1  0  0  0  0  0  0  0  0
  1  4  1  0  0  0  0
  2  4  1  0  0  0  0
  2  5  2  0  0  0  0
  2  6  1  0  0  0  0
  3  4  1  0  0  0  0
  3  7  1  0  0  0  0
  3  8  1  0  0  0  0
  4 26  1  0  0  0  0
  6  9  1  0  0  0  0
  6 12  1  0  0  0  0
  8 10  1  0  0  0  0
  8 11  2  0  0  0  0
  9 13  1  0  0  0  0
  9 14  1  0  0  0  0
  9 15  1  0  0  0  0
 10 16  1  0  0  0  0
 10 17  1  0  0  0  0
 10 18  1  0  0  0  0
 19 20  1  0  0  0  0
 20 21  4  0  0  0  0
 20 25  4  0  0  0  0
 21 22  4  0  0  0  0
 21 27  1  0  0  0  0
 22 23  4  0  0  0  0
 22 28  1  0  0  0  0
 23 24  4  0  0  0  0
 23 26  1  0  0  0  0
 24 25  4  0  0  0  0
 24 29  1  0  0  0  0
 25 30  1  0  0  0  0
 26 31  1  0  0  0  0
 26 32  1  0  0  0  0
M  END
> <BCLConfClusterSize>
1

> <ConfClashScore>
0 

> <ConfOneFourInteractionScore>
-0.950605 

> <ConfScore>
-0.0243445 

> <ConfScorePBest>
0.00501424 

> <ConfTolerance>
0.328089 

> <RosettaParamsInstructions>
M  ROOT 3
M  POLY_N_BB 3
M  POLY_CA_BB 4
M  POLY_C_BB 2
M  POLY_O_BB 5
M  POLY_IGNORE 9 10 11 12 13 14 15 16 17 18 
M  POLY_UPPER 6
M  POLY_LOWER 8
M  POLY_CHG 0
M  POLY_PROPERTIES ALPHA_AA L_AA PROTEIN AROMATIC POLYMER 
M  END

$$$$



 32 32  0  0  0  0  0  0  0  0999 V2000
   -2.7024    2.2556    2.9254 H   0  0  0  1  0  0  0  0  0  0  0  0
   -3.5418    1.4724    1.1516 C   0  0  0  1  0  0  0  0  0  0  0  0
   -1.6211    0.5624    2.4474 N   0  0  0  1  0  0  0  0  0  0  0  0
   -2.3447    1.7599    2.0472 C   0  0  0  1  0  0  0  0  0  0  0  0
   -3.4427    0.8453    0.1127 O   0  0  0  1  0  0  0  0  0  0  0  0
   -4.7518    1.9239    1.5155 N   0  0  0  1  0  0  0  0  0  0  0  0
   -1.3639   -0.0868    1.7598 H   0  0  0  1  0  0  0  0  0  0  0  0
   -1.2956    0.3176    3.7176 C   0  0  0  1  0  0  0  0  0  0  0  0
   -5.8866    1.7792    0.6161 C   0  0  0  1  0  0  0  0  0  0  0  0
   -0.5720   -0.9904    3.9720 C   0  0  0  1  0  0  0  0  0  0  0  0
   -1.5575    1.0917    4.6373 O   0  0  0  1  0  0  0  0  0  0  0  0
   -4.8715    2.3521    2.3889 H   0  0  0  1  0  0  0  0  0  0  0  0
   -5.9328    0.7717    0.2586 H   0  0  0  1  0  0  0  0  0  0  0  0
   -5.7721    2.4464   -0.2125 H   0  0  0  1  0  0  0  0  0  0  0  0
   -6.7894    2.0129    1.1408 H   0  0  0  1  0  0  0  0  0  0  0  0
    0.4644   -0.8778    3.7313 H   0  0  0  1  0  0  0  0  0  0  0  0
   -0.9985   -1.7583    3.3609 H   0  0  0  1  0  0  0  0  0  0  0  0
   -0.6715   -1.2581    5.0032 H   0  0  0  1  0  0  0  0  0  0  0  0
   -4.4032    8.2433    0.3789 I   0  0  0  1  0  0  0  0  0  0  0  0
   -3.4175    6.4271    0.6918 C   0  0  0  1  0  0  0  0  0  0  0  0
   -2.5641    6.2783    1.7740 C   0  0  0  1  0  0  0  0  0  0  0  0
   -1.9084    5.0788    1.9774 C   0  0  0  1  0  0  0  0  0  0  0  0
   -2.1083    4.0227    1.1021 C   0  0  0  1  0  0  0  0  0  0  0  0
   -2.9591    4.1708    0.0229 C   0  0  0  1  0  0  0  0  0  0  0  0
   -3.6167    5.3740   -0.1809 C   0  0  0  1  0  0  0  0  0  0  0  0
   -1.3965    2.7096    1.3270 C   0  0  0  1  0  0  0  0  0  0  0  0
   -2.4173    7.0693    2.4330 H   0  0  0  1  0  0  0  0  0  0  0  0
   -1.2651    4.9685    2.7871 H   0  0  0  1  0  0  0  0  0  0  0  0
   -3.1058    3.3797   -0.6360 H   0  0  0  1  0  0  0  0  0  0  0  0
   -4.2600    5.4843   -0.9906 H   0  0  0  1  0  0  0  0  0  0  0  0
   -1.1111    2.2886    0.3856 H   0  0  0  1  0  0  0  0  0  0  0  0
   -0.5242    2.8704    1.9255 H   0  0  0  1  0  0  0  0  0  0  0  0
  1  4  1  0  0  0  0
  2  4  1  0  0  0  0
  2  5  2  0  0  0  0
  2  6  1  0  0  0  0
  3  4  1  0  0  0  0
  3  7  1  0  0  0  0
  3  8  1  0  0  0  0
  4 26  1  0  0  0  0
  6  9  1  0  0  0  0
  6 12  1  0  0  0  0
  8 10  1  0  0  0  0
  8 11  2  0  0  0  0
  9 13  1  0  0  0  0
  9 14  1  0  0  0  0
  9 15  1  0  0  0  0
 10 16  1  0  0  0  0
 10 17  1  0  0  0  0
 10 18  1  0  0  0  0
 19 20  1  0  0  0  0
 20 21  4  0  0  0  0
 20 25  4  0  0  0  0
 21 22  4  0  0  0  0
 21 27  1  0  0  0  0
 22 23  4  0  0  0  0
 22 28  1  0  0  0  0
 23 24  4  0  0  0  0
 23 26  1  0  0  0  0
 24 25  4  0  0  0  0
 24 29  1  0  0  0  0
 25 30  1  0  0  0  0
 26 31  1  0  0  0  0
 26 32  1  0  0  0  0
M  END
> <BCLConfClusterSize>
1

> <ConfClashScore>
0 

> <ConfOneFourInteractionScore>
-0.990503 

> <ConfScore>
-0.0241468 

> <ConfScorePBest>
0.00498576 

> <ConfTolerance>
0.267316 

> <RosettaParamsInstructions>
M  ROOT 3
M  POLY_N_BB 3
M  POLY_CA_BB 4
M  POLY_C_BB 2
M  POLY_O_BB 5
M  POLY_IGNORE 9 10 11 12 13 14 15 16 17 18 
M  POLY_UPPER 6
M  POLY_LOWER 8
M  POLY_CHG 0
M  POLY_PROPERTIES ALPHA_AA L_AA PROTEIN AROMATIC POLYMER 
M  END

$$$$



 32 32  0  0  0  0  0  0  0  0999 V2000
   -3.1006    1.5693    1.5993 H   0  0  0  1  0  0  0  0  0  0  0  0
   -1.4253    0.3174    1.9076 C   0  0  0  1  0  0  0  0  0  0  0  0
   -2.3028    2.0760    3.4350 N   0  0  0  1  0  0  0  0  0  0  0  0
   -2.1354    1.6573    2.0525 C   0  0  0  1  0  0  0  0  0  0  0  0
   -0.2333    0.2040    2.1416 O   0  0  0  1  0  0  0  0  0  0  0  0
   -2.1933   -0.7097    1.5109 N   0  0  0  1  0  0  0  0  0  0  0  0
   -1.7050    2.7522    3.8169 H   0  0  0  1  0  0  0  0  0  0  0  0
   -3.2682    1.5416    4.1844 C   0  0  0  1  0  0  0  0  0  0  0  0
   -1.6461   -2.0312    1.2425 C   0  0  0  1  0  0  0  0  0  0  0  0
   -3.4667    2.1707    5.5497 C   0  0  0  1  0  0  0  0  0  0  0  0
   -3.9633    0.5988    3.8088 O   0  0  0  1  0  0  0  0  0  0  0  0
   -3.1559   -0.5646    1.3982 H   0  0  0  1  0  0  0  0  0  0  0  0
   -1.2796   -2.4577    2.1529 H   0  0  0  1  0  0  0  0  0  0  0  0
   -0.8438   -1.9487    0.5393 H   0  0  0  1  0  0  0  0  0  0  0  0
   -2.4124   -2.6589    0.8380 H   0  0  0  1  0  0  0  0  0  0  0  0
   -2.6120    1.9722    6.1621 H   0  0  0  1  0  0  0  0  0  0  0  0
   -4.3390    1.7557    6.0099 H   0  0  0  1  0  0  0  0  0  0  0  0
   -3.5891    3.2280    5.4406 H   0  0  0  1  0  0  0  0  0  0  0  0
   -4.3863    8.2498    0.3656 I   0  0  0  1  0  0  0  0  0  0  0  0
   -3.4144    6.4282    0.6898 C   0  0  0  1  0  0  0  0  0  0  0  0
   -2.5661    6.2780    1.7758 C   0  0  0  1  0  0  0  0  0  0  0  0
   -1.9195    5.0749    1.9867 C   0  0  0  1  0  0  0  0  0  0  0  0
   -2.1235    4.0165    1.1151 C   0  0  0  1  0  0  0  0  0  0  0  0
   -2.9693    4.1659    0.0322 C   0  0  0  1  0  0  0  0  0  0  0  0
   -3.6177    5.3728   -0.1792 C   0  0  0  1  0  0  0  0  0  0  0  0
   -1.3527    2.7287    1.2851 C   0  0  0  1  0  0  0  0  0  0  0  0
   -2.4162    7.0709    2.4319 H   0  0  0  1  0  0  0  0  0  0  0  0
   -1.2800    4.9636    2.7992 H   0  0  0  1  0  0  0  0  0  0  0  0
   -3.1191    3.3731   -0.6239 H   0  0  0  1  0  0  0  0  0  0  0  0
   -4.2572    5.4840   -0.9917 H   0  0  0  1  0  0  0  0  0  0  0  0
   -1.1119    2.3454    0.3155 H   0  0  0  1  0  0  0  0  0  0  0  0
   -0.4504    2.9399    1.8199 H   0  0  0  1  0  0  0  0  0  0  0  0
  1  4  1  0  0  0  0
  2  4  1  0  0  0  0
  2  5  2  0  0  0  0
  2  6  1  0  0  0  0
  3  4  1  0  0  0  0
  3  7  1  0  0  0  0
  3  8  1  0  0  0  0
  4 26  1  0  0  0  0
  6  9  1  0  0  0  0
  6 12  1  0  0  0  0
  8 10  1  0  0  0  0
  8 11  2  0  0  0  0
  9 13  1  0  0  0  0
  9 14  1  0  0  0  0
  9 15  1  0  0  0  0
 10 16  1  0  0  0  0
 10 17  1  0  0  0  0
 10 18  1  0  0  0  0
 19 20  1  0  0  0  0
 20 21  4  0  0  0  0
 20 25  4  0  0  0  0
 21 22  4  0  0  0  0
 21 27  1  0  0  0  0
 22 23  4  0  0  0  0
 22 28  1  0  0  0  0
 23 24  4  0  0  0  0
 23 26  1  0  0  0  0
 24 25  4  0  0  0  0
 24 29  1  0  0  0  0
 25 30  1  0  0  0  0
 26 31  1  0  0  0  0
 26 32  1  0  0  0  0
M  END
> <BCLConfClusterSize>
1

> <ConfClashScore>
0 

> <ConfOneFourInteractionScore>
-0.971454 

> <ConfScore>
-0.0221923 

> <ConfScorePBest>
0.00495728 

> <ConfTolerance>
0.279727 

> <RosettaParamsInstructions>
M  ROOT 3
M  POLY_N_BB 3
M  POLY_CA_BB 4
M  POLY_C_BB 2
M  POLY_O_BB 5
M  POLY_IGNORE 9 10 11 12 13 14 15 16 17 18 
M  POLY_UPPER 6
M  POLY_LOWER 8
M  POLY_CHG 0
M  POLY_PROPERTIES ALPHA_AA L_AA PROTEIN AROMATIC POLYMER 
M  END

$$$$



 32 32  0  0  0  0  0  0  0  0999 V2000
   -2.3769    2.3450    3.1726 H   0  0  0  1  0  0  0  0  0  0  0  0
   -3.4396    1.2628    1.6983 C   0  0  0  1  0  0  0  0  0  0  0  0
   -1.2518    0.6885    2.6588 N   0  0  0  1  0  0  0  0  0  0  0  0
   -2.1387    1.7830    2.2938 C   0  0  0  1  0  0  0  0  0  0  0  0
   -3.4053    0.7915    0.5624 O   0  0  0  1  0  0  0  0  0  0  0  0
   -4.5452    1.3444    2.4354 N   0  0  0  1  0  0  0  0  0  0  0  0
   -0.9348    0.0824    1.9570 H   0  0  0  1  0  0  0  0  0  0  0  0
   -0.8507    0.4792    3.9299 C   0  0  0  1  0  0  0  0  0  0  0  0
   -5.8362    0.8748    1.9551 C   0  0  0  1  0  0  0  0  0  0  0  0
    0.1387   -0.6345    4.1888 C   0  0  0  1  0  0  0  0  0  0  0  0
   -1.2759    1.1726    4.8529 O   0  0  0  1  0  0  0  0  0  0  0  0
   -4.4877    1.7343    3.3327 H   0  0  0  1  0  0  0  0  0  0  0  0
   -5.6983    0.3037    1.0608 H   0  0  0  1  0  0  0  0  0  0  0  0
   -6.4664    1.7144    1.7482 H   0  0  0  1  0  0  0  0  0  0  0  0
   -6.2930    0.2610    2.7030 H   0  0  0  1  0  0  0  0  0  0  0  0
   -0.0242   -1.4269    3.4885 H   0  0  0  1  0  0  0  0  0  0  0  0
    0.0058   -1.0051    5.1837 H   0  0  0  1  0  0  0  0  0  0  0  0
    1.1346   -0.2594    4.0774 H   0  0  0  1  0  0  0  0  0  0  0  0
   -4.4032    8.2433    0.3789 I   0  0  0  1  0  0  0  0  0  0  0  0
   -3.4175    6.4271    0.6918 C   0  0  0  1  0  0  0  0  0  0  0  0
   -2.5641    6.2783    1.7740 C   0  0  0  1  0  0  0  0  0  0  0  0
   -1.9084    5.0788    1.9774 C   0  0  0  1  0  0  0  0  0  0  0  0
   -2.1083    4.0227    1.1021 C   0  0  0  1  0  0  0  0  0  0  0  0
   -2.9591    4.1708    0.0229 C   0  0  0  1  0  0  0  0  0  0  0  0
   -3.6167    5.3740   -0.1809 C   0  0  0  1  0  0  0  0  0  0  0  0
   -1.3965    2.7096    1.3270 C   0  0  0  1  0  0  0  0  0  0  0  0
   -2.4173    7.0693    2.4330 H   0  0  0  1  0  0  0  0  0  0  0  0
   -1.2651    4.9685    2.7871 H   0  0  0  1  0  0  0  0  0  0  0  0
   -3.1058    3.3797   -0.6360 H   0  0  0  1  0  0  0  0  0  0  0  0
   -4.2600    5.4843   -0.9906 H   0  0  0  1  0  0  0  0  0  0  0  0
   -1.2970    2.2105    0.3857 H   0  0  0  1  0  0  0  0  0  0  0  0
   -0.4255    2.9128    1.7279 H   0  0  0  1  0  0  0  0  0  0  0  0
  1  4  1  0  0  0  0
  2  4  1  0  0  0  0
  2  5  2  0  0  0  0
  2  6  1  0  0  0  0
  3  4  1  0  0  0  0
  3  7  1  0  0  0  0
  3  8  1  0  0  0  0
  4 26  1  0  0  0  0
  6  9  1  0  0  0  0
  6 12  1  0  0  0  0
  8 10  1  0  0  0  0
  8 11  2  0  0  0  0
  9 13  1  0  0  0  0
  9 14  1  0  0  0  0
  9 15  1  0  0  0  0
 10 16  1  0  0  0  0
 10 17  1  0  0  0  0
 10 18  1  0  0  0  0
 19 20  1  0  0  0  0
 20 21  4  0  0  0  0
 20 25  4  0  0  0  0
 21 22  4  0  0  0  0
 21 27  1  0  0  0  0
 22 23  4  0  0  0  0
 22 28  1  0  0  0  0
 23 24  4  0  0  0  0
 23 26  1  0  0  0  0
 24 25  4  0  0  0  0
 24 29  1  0  0  0  0
 25 30  1  0  0  0  0
 26 31  1  0  0  0  0
 26 32  1  0  0  0  0
M  END
> <BCLConfClusterSize>
1

> <ConfClashScore>
0 

> <ConfOneFourInteractionScore>
-0.979134 

> <ConfScore>
-0.0209744 

> <ConfScorePBest>
0.0049288 

> <ConfTolerance>
0.294982 

> <RosettaParamsInstructions>
M  ROOT 3
M  POLY_N_BB 3
M  POLY_CA_BB 4
M  POLY_C_BB 2
M  POLY_O_BB 5
M  POLY_IGNORE 9 10 11 12 13 14 15 16 17 18 
M  POLY_UPPER 6
M  POLY_LOWER 8
M  POLY_CHG 0
M  POLY_PROPERTIES ALPHA_AA L_AA PROTEIN AROMATIC POLYMER 
M  END

$$$$



 32 32  0  0  0  0  0  0  0  0999 V2000
   -2.3453    2.0693    3.0943 H   0  0  0  1  0  0  0  0  0  0  0  0
   -3.5414    1.4191    1.4935 C   0  0  0  1  0  0  0  0  0  0  0  0
   -1.3948    0.4513    2.2515 N   0  0  0  1  0  0  0  0  0  0  0  0
   -2.1803    1.6689    2.1158 C   0  0  0  1  0  0  0  0  0  0  0  0
   -3.7344    0.7115    0.5222 O   0  0  0  1  0  0  0  0  0  0  0  0
   -4.5418    2.0590    2.1180 N   0  0  0  1  0  0  0  0  0  0  0  0
   -0.6066    0.3310    1.6817 H   0  0  0  1  0  0  0  0  0  0  0  0
   -1.7122   -0.5123    3.1295 C   0  0  0  1  0  0  0  0  0  0  0  0
   -5.8974    1.9829    1.5942 C   0  0  0  1  0  0  0  0  0  0  0  0
   -0.8077   -1.7239    3.1305 C   0  0  0  1  0  0  0  0  0  0  0  0
   -2.6739   -0.4329    3.8927 O   0  0  0  1  0  0  0  0  0  0  0  0
   -4.3592    2.5786    2.9286 H   0  0  0  1  0  0  0  0  0  0  0  0
   -5.8699    2.0212    0.5253 H   0  0  0  1  0  0  0  0  0  0  0  0
   -6.4699    2.8069    1.9658 H   0  0  0  1  0  0  0  0  0  0  0  0
   -6.3491    1.0645    1.9064 H   0  0  0  1  0  0  0  0  0  0  0  0
   -0.5068   -1.9458    2.1280 H   0  0  0  1  0  0  0  0  0  0  0  0
   -1.3342   -2.5614    3.5383 H   0  0  0  1  0  0  0  0  0  0  0  0
    0.0580   -1.5218    3.7260 H   0  0  0  1  0  0  0  0  0  0  0  0
   -4.4032    8.2433    0.3789 I   0  0  0  1  0  0  0  0  0  0  0  0
   -3.4175    6.4271    0.6918 C   0  0  0  1  0  0  0  0  0  0  0  0
   -2.5641    6.2783    1.7740 C   0  0  0  1  0  0  0  0  0  0  0  0
   -1.9084    5.0788    1.9774 C   0  0  0  1  0  0  0  0  0  0  0  0
   -2.1083    4.0227    1.1021 C   0  0  0  1  0  0  0  0  0  0  0  0
   -2.9591    4.1708    0.0229 C   0  0  0  1  0  0  0  0  0  0  0  0
   -3.6167    5.3740   -0.1809 C   0  0  0  1  0  0  0  0  0  0  0  0
   -1.3965    2.7096    1.3270 C   0  0  0  1  0  0  0  0  0  0  0  0
   -2.4173    7.0693    2.4330 H   0  0  0  1  0  0  0  0  0  0  0  0
   -1.2651    4.9685    2.7871 H   0  0  0  1  0  0  0  0  0  0  0  0
   -3.1058    3.3797   -0.6360 H   0  0  0  1  0  0  0  0  0  0  0  0
   -4.2600    5.4843   -0.9906 H   0  0  0  1  0  0  0  0  0  0  0  0
   -1.1640    2.2919    0.3697 H   0  0  0  1  0  0  0  0  0  0  0  0
   -0.4899    2.9123    1.8579 H   0  0  0  1  0  0  0  0  0  0  0  0
  1  4  1  0  0  0  0
  2  4  1  0  0  0  0
  2  5  2  0  0  0  0
  2  6  1  0  0  0  0
  3  4  1  0  0  0  0
  3  7  1  0  0  0  0
  3  8  1  0  0  0  0
  4 26  1  0  0  0  0
  6  9  1  0  0  0  0
  6 12  1  0  0  0  0
  8 10  1  0  0  0  0
  8 11  2  0  0  0  0
  9 13  1  0  0  0  0
  9 14  1  0  0  0  0
  9 15  1  0  0  0  0
 10 16  1  0  0  0  0
 10 17  1  0  0  0  0
 10 18  1  0  0  0  0
 19 20  1  0  0  0  0
 20 21  4  0  0  0  0
 20 25  4  0  0  0  0
 21 22  4  0  0  0  0
 21 27  1  0  0  0  0
 22 23  4  0  0  0  0
 22 28  1  0  0  0  0
 23 24  4  0  0  0  0
 23 26  1  0  0  0  0
 24 25  4  0  0  0  0
 24 29  1  0  0  0  0
 25 30  1  0  0  0  0
 26 31  1  0  0  0  0
 26 32  1  0  0  0  0
M  END
> <BCLConfClusterSize>
1

> <ConfClashScore>
0 

> <ConfOneFourInteractionScore>
-0.985807 

> <ConfScore>
-0.0192273 

> <ConfScorePBest>
0.00490032 

> <ConfTolerance>
0.213685 

> <RosettaParamsInstructions>
M  ROOT 3
M  POLY_N_BB 3
M  POLY_CA_BB 4
M  POLY_C_BB 2
M  POLY_O_BB 5
M  POLY_IGNORE 9 10 11 12 13 14 15 16 17 18 
M  POLY_UPPER 6
M  POLY_LOWER 8
M  POLY_CHG 0
M  POLY_PROPERTIES ALPHA_AA L_AA PROTEIN AROMATIC POLYMER 
M  END

$$$$



 32 32  0  0  0  0  0  0  0  0999 V2000
   -2.3654    1.6677   -0.2172 H   0  0  0  1  0  0  0  0  0  0  0  0
   -1.1704    0.2704    0.8039 C   0  0  0  1  0  0  0  0  0  0  0  0
   -3.3093    1.2581    1.5642 N   0  0  0  1  0  0  0  0  0  0  0  0
   -2.0909    1.4794    0.7997 C   0  0  0  1  0  0  0  0  0  0  0  0
   -0.3965    0.0381   -0.1055 O   0  0  0  1  0  0  0  0  0  0  0  0
   -1.2085   -0.5745    1.8455 N   0  0  0  1  0  0  0  0  0  0  0  0
   -3.6347    1.9713    2.1524 H   0  0  0  1  0  0  0  0  0  0  0  0
   -3.9997    0.1166    1.4920 C   0  0  0  1  0  0  0  0  0  0  0  0
   -0.3497   -1.7492    1.8653 C   0  0  0  1  0  0  0  0  0  0  0  0
   -5.3266    0.1017    2.2258 C   0  0  0  1  0  0  0  0  0  0  0  0
   -3.6012   -0.8681    0.8756 O   0  0  0  1  0  0  0  0  0  0  0  0
   -1.8160   -0.4003    2.5946 H   0  0  0  1  0  0  0  0  0  0  0  0
    0.5159   -1.5691    1.2626 H   0  0  0  1  0  0  0  0  0  0  0  0
   -0.8861   -2.5895    1.4766 H   0  0  0  1  0  0  0  0  0  0  0  0
   -0.0474   -1.9528    2.8714 H   0  0  0  1  0  0  0  0  0  0  0  0
   -5.2850   -0.6091    3.0246 H   0  0  0  1  0  0  0  0  0  0  0  0
   -6.1066   -0.1712    1.5461 H   0  0  0  1  0  0  0  0  0  0  0  0
   -5.5243    1.0747    2.6245 H   0  0  0  1  0  0  0  0  0  0  0  0
   -4.3383    8.2714    0.3548 I   0  0  0  1  0  0  0  0  0  0  0  0
   -3.4422    6.4159    0.7046 C   0  0  0  1  0  0  0  0  0  0  0  0
   -2.5820    6.2725    1.7821 C   0  0  0  1  0  0  0  0  0  0  0  0
   -1.9105    5.0802    1.9766 C   0  0  0  1  0  0  0  0  0  0  0  0
   -2.1014    4.0260    1.0970 C   0  0  0  1  0  0  0  0  0  0  0  0
   -2.9590    4.1688    0.0226 C   0  0  0  1  0  0  0  0  0  0  0  0
   -3.6324    5.3647   -0.1723 C   0  0  0  1  0  0  0  0  0  0  0  0
   -1.3724    2.7207    1.3122 C   0  0  0  1  0  0  0  0  0  0  0  0
   -2.4418    7.0621    2.4443 H   0  0  0  1  0  0  0  0  0  0  0  0
   -1.2621    4.9740    2.7827 H   0  0  0  1  0  0  0  0  0  0  0  0
   -3.0991    3.3792   -0.6396 H   0  0  0  1  0  0  0  0  0  0  0  0
   -4.2808    5.4709   -0.9784 H   0  0  0  1  0  0  0  0  0  0  0  0
   -0.4275    2.7844    0.8141 H   0  0  0  1  0  0  0  0  0  0  0  0
   -1.2145    2.6003    2.3636 H   0  0  0  1  0  0  0  0  0  0  0  0
  1  4  1  0  0  0  0
  2  4  1  0  0  0  0
  2  5  2  0  0  0  0
  2  6  1  0  0  0  0
  3  4  1  0  0  0  0
  3  7  1  0  0  0  0
  3  8  1  0  0  0  0
  4 26  1  0  0  0  0
  6  9  1  0  0  0  0
  6 12  1  0  0  0  0
  8 10  1  0  0  0  0
  8 11  2  0  0  0  0
  9 13  1  0  0  0  0
  9 14  1  0  0  0  0
  9 15  1  0  0  0  0
 10 16  1  0  0  0  0
 10 17  1  0  0  0  0
 10 18  1  0  0  0  0
 19 20  1  0  0  0  0
 20 21  4  0  0  0  0
 20 25  4  0  0  0  0
 21 22  4  0  0  0  0
 21 27  1  0  0  0  0
 22 23  4  0  0  0  0
 22 28  1  0  0  0  0
 23 24  4  0  0  0  0
 23 26  1  0  0  0  0
 24 25  4  0  0  0  0
 24 29  1  0  0  0  0
 25 30  1  0  0  0  0
 26 31  1  0  0  0  0
 26 32  1  0  0  0  0
M  END
> <BCLConfClusterSize>
1

> <ConfClashScore>
0 

> <ConfOneFourInteractionScore>
-0.952877 

> <ConfScore>
-0.0173487 

> <ConfScorePBest>
0.00487184 

> <ConfTolerance>
0.595436 

> <RosettaParamsInstructions>
M  ROOT 3
M  POLY_N_BB 3
M  POLY_CA_BB 4
M  POLY_C_BB 2
M  POLY_O_BB 5
M  POLY_IGNORE 9 10 11 12 13 14 15 16 17 18 
M  POLY_UPPER 6
M  POLY_LOWER 8
M  POLY_CHG 0
M  POLY_PROPERTIES ALPHA_AA L_AA PROTEIN AROMATIC POLYMER 
M  END

$$$$



 32 32  0  0  0  0  0  0  0  0999 V2000
   -1.3153    2.7808    3.4600 H   0  0  0  1  0  0  0  0  0  0  0  0
   -3.2106    2.0026    3.0249 C   0  0  0  1  0  0  0  0  0  0  0  0
   -1.0383    0.8201    2.8911 N   0  0  0  1  0  0  0  0  0  0  0  0
   -1.7200    2.1209    2.7214 C   0  0  0  1  0  0  0  0  0  0  0  0
   -3.9134    1.1686    2.4565 O   0  0  0  1  0  0  0  0  0  0  0  0
   -3.6869    2.8556    3.9362 N   0  0  0  1  0  0  0  0  0  0  0  0
   -1.2122    0.1208    2.2270 H   0  0  0  1  0  0  0  0  0  0  0  0
   -0.1918    0.5345    3.9022 C   0  0  0  1  0  0  0  0  0  0  0  0
   -5.1032    2.8520    4.2706 C   0  0  0  1  0  0  0  0  0  0  0  0
    0.3982   -0.8562    3.9638 C   0  0  0  1  0  0  0  0  0  0  0  0
    0.0926    1.3775    4.7489 O   0  0  0  1  0  0  0  0  0  0  0  0
   -3.0812    3.4851    4.3804 H   0  0  0  1  0  0  0  0  0  0  0  0
   -5.6656    2.4810    3.4393 H   0  0  0  1  0  0  0  0  0  0  0  0
   -5.4184    3.8491    4.4975 H   0  0  0  1  0  0  0  0  0  0  0  0
   -5.2671    2.2234    5.1208 H   0  0  0  1  0  0  0  0  0  0  0  0
    0.9559   -1.0475    3.0709 H   0  0  0  1  0  0  0  0  0  0  0  0
   -0.3901   -1.5743    4.0523 H   0  0  0  1  0  0  0  0  0  0  0  0
    1.0465   -0.9311    4.8118 H   0  0  0  1  0  0  0  0  0  0  0  0
   -4.3764    8.2648    0.4279 I   0  0  0  1  0  0  0  0  0  0  0  0
   -3.4234    6.4220    0.6808 C   0  0  0  1  0  0  0  0  0  0  0  0
   -2.5705    6.2753    1.7637 C   0  0  0  1  0  0  0  0  0  0  0  0
   -1.9138    5.0767    1.9689 C   0  0  0  1  0  0  0  0  0  0  0  0
   -2.1121    4.0194    1.0948 C   0  0  0  1  0  0  0  0  0  0  0  0
   -2.9625    4.1653    0.0151 C   0  0  0  1  0  0  0  0  0  0  0  0
   -3.6211    5.3676   -0.1907 C   0  0  0  1  0  0  0  0  0  0  0  0
   -1.3744    2.7301    1.3689 C   0  0  0  1  0  0  0  0  0  0  0  0
   -2.4248    7.0674    2.4217 H   0  0  0  1  0  0  0  0  0  0  0  0
   -1.2708    4.9681    2.7791 H   0  0  0  1  0  0  0  0  0  0  0  0
   -3.1082    3.3733   -0.6430 H   0  0  0  1  0  0  0  0  0  0  0  0
   -4.2641    5.4762   -1.0009 H   0  0  0  1  0  0  0  0  0  0  0  0
   -1.6247    2.0252    0.6038 H   0  0  0  1  0  0  0  0  0  0  0  0
   -0.3230    2.9272    1.3428 H   0  0  0  1  0  0  0  0  0  0  0  0
  1  4  1  0  0  0  0
  2  4  1  0  0  0  0
  2  5  2  0  0  0  0
  2  6  1  0  0  0  0
  3  4  1  0  0  0  0
  3  7  1  0  0  0  0
  3  8  1  0  0  0  0
  4 26  1  0  0  0  0
  6  9  1  0  0  0  0
  6 12  1  0  0  0  0
  8 10  1  0  0  0  0
  8 11  2  0  0  0  0
  9 13  1  0  0  0  0
  9 14  1  0  0  0  0
  9 15  1  0  0  0  0
 10 16  1  0  0  0  0
 10 17  1  0  0  0  0
 10 18  1  0  0  0  0
 19 20  1  0  0  0  0
 20 21  4  0  0  0  0
 20 25  4  0  0  0  0
 21 22  4  0  0  0  0
 21 27  1  0  0  0  0
 22 23  4  0  0  0  0
 22 28  1  0  0  0  0
 23 24  4  0  0  0  0
 23 26  1  0  0  0  0
 24 25  4  0  0  0  0
 24 29  1  0  0  0  0
 25 30  1  0  0  0  0
 26 31  1  0  0  0  0
 26 32  1  0  0  0  0
M  END
> <BCLConfClusterSize>
1

> <ConfClashScore>
0 

> <ConfOneFourInteractionScore>
-0.985807 

> <ConfScore>
-0.0160841 

> <ConfScorePBest>
0.00484336 

> <ConfTolerance>
0.260259 

> <RosettaParamsInstructions>
M  ROOT 3
M  POLY_N_BB 3
M  POLY_CA_BB 4
M  POLY_C_BB 2
M  POLY_O_BB 5
M  POLY_IGNORE 9 10 11 12 13 14 15 16 17 18 
M  POLY_UPPER 6
M  POLY_LOWER 8
M  POLY_CHG 0
M  POLY_PROPERTIES ALPHA_AA L_AA PROTEIN AROMATIC POLYMER 
M  END

$$$$



 32 32  0  0  0  0  0  0  0  0999 V2000
   -2.8838    1.4126    1.8102 H   0  0  0  1  0  0  0  0  0  0  0  0
   -1.1608    0.5712    2.6599 C   0  0  0  1  0  0  0  0  0  0  0  0
   -2.4185    2.5017    3.5061 N   0  0  0  1  0  0  0  0  0  0  0  0
   -1.9997    1.7786    2.2891 C   0  0  0  1  0  0  0  0  0  0  0  0
   -0.5387   -0.0603    1.8068 O   0  0  0  1  0  0  0  0  0  0  0  0
   -1.1473    0.2483    3.9629 N   0  0  0  1  0  0  0  0  0  0  0  0
   -1.7326    2.7932    4.1426 H   0  0  0  1  0  0  0  0  0  0  0  0
   -3.7483    2.7828    3.7800 C   0  0  0  1  0  0  0  0  0  0  0  0
   -0.3504   -0.8768    4.4287 C   0  0  0  1  0  0  0  0  0  0  0  0
   -4.0838    3.6435    4.9656 C   0  0  0  1  0  0  0  0  0  0  0  0
   -4.6039    2.3207    3.0474 O   0  0  0  1  0  0  0  0  0  0  0  0
   -1.6753    0.7713    4.6017 H   0  0  0  1  0  0  0  0  0  0  0  0
   -0.6093   -1.1026    5.4420 H   0  0  0  1  0  0  0  0  0  0  0  0
    0.6881   -0.6249    4.3738 H   0  0  0  1  0  0  0  0  0  0  0  0
   -0.5440   -1.7300    3.8127 H   0  0  0  1  0  0  0  0  0  0  0  0
   -3.3087    4.3663    5.1130 H   0  0  0  1  0  0  0  0  0  0  0  0
   -4.1699    3.0303    5.8382 H   0  0  0  1  0  0  0  0  0  0  0  0
   -5.0116    4.1466    4.7897 H   0  0  0  1  0  0  0  0  0  0  0  0
   -4.3836    8.2519    0.3698 I   0  0  0  1  0  0  0  0  0  0  0  0
   -3.4146    6.4279    0.6892 C   0  0  0  1  0  0  0  0  0  0  0  0
   -2.5656    6.2739    1.7741 C   0  0  0  1  0  0  0  0  0  0  0  0
   -1.9210    5.0692    1.9819 C   0  0  0  1  0  0  0  0  0  0  0  0
   -2.1275    4.0131    1.1082 C   0  0  0  1  0  0  0  0  0  0  0  0
   -2.9740    4.1663    0.0264 C   0  0  0  1  0  0  0  0  0  0  0  0
   -3.6205    5.3747   -0.1819 C   0  0  0  1  0  0  0  0  0  0  0  0
   -1.3340    2.7451    1.3183 C   0  0  0  1  0  0  0  0  0  0  0  0
   -2.4138    7.0651    2.4318 H   0  0  0  1  0  0  0  0  0  0  0  0
   -1.2809    4.9551    2.7936 H   0  0  0  1  0  0  0  0  0  0  0  0
   -3.1258    3.3751   -0.6313 H   0  0  0  1  0  0  0  0  0  0  0  0
   -4.2606    5.4888   -0.9936 H   0  0  0  1  0  0  0  0  0  0  0  0
   -1.2194    2.2547    0.3743 H   0  0  0  1  0  0  0  0  0  0  0  0
   -0.3709    3.0062    1.7044 H   0  0  0  1  0  0  0  0  0  0  0  0
  1  4  1  0  0  0  0
  2  4  1  0  0  0  0
  2  5  2  0  0  0  0
  2  6  1  0  0  0  0
  3  4  1  0  0  0  0
  3  7  1  0  0  0  0
  3  8  1  0  0  0  0
  4 26  1  0  0  0  0
  6  9  1  0  0  0  0
  6 12  1  0  0  0  0
  8 10  1  0  0  0  0
  8 11  2  0  0  0  0
  9 13  1  0  0  0  0
  9 14  1  0  0  0  0
  9 15  1  0  0  0  0
 10 16  1  0  0  0  0
 10 17  1  0  0  0  0
 10 18  1  0  0  0  0
 19 20  1  0  0  0  0
 20 21  4  0  0  0  0
 20 25  4  0  0  0  0
 21 22  4  0  0  0  0
 21 27  1  0  0  0  0
 22 23  4  0  0  0  0
 22 28  1  0  0  0  0
 23 24  4  0  0  0  0
 23 26  1  0  0  0  0
 24 25  4  0  0  0  0
 24 29  1  0  0  0  0
 25 30  1  0  0  0  0
 26 31  1  0  0  0  0
 26 32  1  0  0  0  0
M  END
> <BCLConfClusterSize>
1

> <ConfClashScore>
0 

> <ConfOneFourInteractionScore>
-0.946346 

> <ConfScore>
-0.0158851 

> <ConfScorePBest>
0.00481488 

> <ConfTolerance>
0.332829 

> <RosettaParamsInstructions>
M  ROOT 3
M  POLY_N_BB 3
M  POLY_CA_BB 4
M  POLY_C_BB 2
M  POLY_O_BB 5
M  POLY_IGNORE 9 10 11 12 13 14 15 16 17 18 
M  POLY_UPPER 6
M  POLY_LOWER 8
M  POLY_CHG 0
M  POLY_PROPERTIES ALPHA_AA L_AA PROTEIN AROMATIC POLYMER 
M  END

$$$$



 32 32  0  0  0  0  0  0  0  0999 V2000
   -2.2000    2.2107    3.2064 H   0  0  0  1  0  0  0  0  0  0  0  0
   -3.5095    1.4907    1.7209 C   0  0  0  1  0  0  0  0  0  0  0  0
   -1.3588    0.4992    2.4295 N   0  0  0  1  0  0  0  0  0  0  0  0
   -2.1053    1.7346    2.2528 C   0  0  0  1  0  0  0  0  0  0  0  0
   -3.6944    0.9410    0.6382 O   0  0  0  1  0  0  0  0  0  0  0  0
   -4.5061    1.9100    2.5021 N   0  0  0  1  0  0  0  0  0  0  0  0
   -0.4476    0.4239    2.0770 H   0  0  0  1  0  0  0  0  0  0  0  0
   -1.9175   -0.5420    3.0769 C   0  0  0  1  0  0  0  0  0  0  0  0
   -5.9024    1.6405    2.1929 C   0  0  0  1  0  0  0  0  0  0  0  0
   -1.0267   -1.7544    3.2664 C   0  0  0  1  0  0  0  0  0  0  0  0
   -3.0726   -0.5283    3.4940 O   0  0  0  1  0  0  0  0  0  0  0  0
   -4.2905    2.4171    3.3125 H   0  0  0  1  0  0  0  0  0  0  0  0
   -6.0760    1.8075    1.1504 H   0  0  0  1  0  0  0  0  0  0  0  0
   -6.5268    2.2925    2.7672 H   0  0  0  1  0  0  0  0  0  0  0  0
   -6.1308    0.6233    2.4338 H   0  0  0  1  0  0  0  0  0  0  0  0
   -0.3851   -1.5981    4.1083 H   0  0  0  1  0  0  0  0  0  0  0  0
   -0.4332   -1.9014    2.3883 H   0  0  0  1  0  0  0  0  0  0  0  0
   -1.6334   -2.6192    3.4364 H   0  0  0  1  0  0  0  0  0  0  0  0
   -4.4032    8.2433    0.3789 I   0  0  0  1  0  0  0  0  0  0  0  0
   -3.4175    6.4271    0.6918 C   0  0  0  1  0  0  0  0  0  0  0  0
   -2.5641    6.2783    1.7740 C   0  0  0  1  0  0  0  0  0  0  0  0
   -1.9084    5.0788    1.9774 C   0  0  0  1  0  0  0  0  0  0  0  0
   -2.1083    4.0227    1.1021 C   0  0  0  1  0  0  0  0  0  0  0  0
   -2.9591    4.1708    0.0229 C   0  0  0  1  0  0  0  0  0  0  0  0
   -3.6167    5.3740   -0.1809 C   0  0  0  1  0  0  0  0  0  0  0  0
   -1.3965    2.7096    1.3270 C   0  0  0  1  0  0  0  0  0  0  0  0
   -2.4173    7.0693    2.4330 H   0  0  0  1  0  0  0  0  0  0  0  0
   -1.2651    4.9685    2.7871 H   0  0  0  1  0  0  0  0  0  0  0  0
   -3.1058    3.3797   -0.6360 H   0  0  0  1  0  0  0  0  0  0  0  0
   -4.2600    5.4843   -0.9906 H   0  0  0  1  0  0  0  0  0  0  0  0
   -1.2746    2.2332    0.3767 H   0  0  0  1  0  0  0  0  0  0  0  0
   -0.4351    2.9227    1.7456 H   0  0  0  1  0  0  0  0  0  0  0  0
  1  4  1  0  0  0  0
  2  4  1  0  0  0  0
  2  5  2  0  0  0  0
  2  6  1  0  0  0  0
  3  4  1  0  0  0  0
  3  7  1  0  0  0  0
  3  8  1  0  0  0  0
  4 26  1  0  0  0  0
  6  9  1  0  0  0  0
  6 12  1  0  0  0  0
  8 10  1  0  0  0  0
  8 11  2  0  0  0  0
  9 13  1  0  0  0  0
  9 14  1  0  0  0  0
  9 15  1  0  0  0  0
 10 16  1  0  0  0  0
 10 17  1  0  0  0  0
 10 18  1  0  0  0  0
 19 20  1  0  0  0  0
 20 21  4  0  0  0  0
 20 25  4  0  0  0  0
 21 22  4  0  0  0  0
 21 27  1  0  0  0  0
 22 23  4  0  0  0  0
 22 28  1  0  0  0  0
 23 24  4  0  0  0  0
 23 26  1  0  0  0  0
 24 25  4  0  0  0  0
 24 29  1  0  0  0  0
 25 30  1  0  0  0  0
 26 31  1  0  0  0  0
 26 32  1  0  0  0  0
M  END
> <BCLConfClusterSize>
1

> <ConfClashScore>
0 

> <ConfOneFourInteractionScore>
-0.985807 

> <ConfScore>
-0.00659661 

> <ConfScorePBest>
0.00478639 

> <ConfTolerance>
0.305996 

> <RosettaParamsInstructions>
M  ROOT 3
M  POLY_N_BB 3
M  POLY_CA_BB 4
M  POLY_C_BB 2
M  POLY_O_BB 5
M  POLY_IGNORE 9 10 11 12 13 14 15 16 17 18 
M  POLY_UPPER 6
M  POLY_LOWER 8
M  POLY_CHG 0
M  POLY_PROPERTIES ALPHA_AA L_AA PROTEIN AROMATIC POLYMER 
M  END

$$$$



 32 32  0  0  0  0  0  0  0  0999 V2000
    0.4770    3.3527    0.7169 H   0  0  0  1  0  0  0  0  0  0  0  0
    0.5907    1.2779    1.1604 C   0  0  0  1  0  0  0  0  0  0  0  0
   -0.4293    2.2956   -0.8234 N   0  0  0  1  0  0  0  0  0  0  0  0
   -0.1393    2.4873    0.5898 C   0  0  0  1  0  0  0  0  0  0  0  0
    0.6209    0.2170    0.5423 O   0  0  0  1  0  0  0  0  0  0  0  0
    1.2409    1.5065    2.3050 N   0  0  0  1  0  0  0  0  0  0  0  0
   -0.8384    1.4482   -1.0969 H   0  0  0  1  0  0  0  0  0  0  0  0
   -0.1732    3.2014   -1.7715 C   0  0  0  1  0  0  0  0  0  0  0  0
    1.8711    0.4392    3.0675 C   0  0  0  1  0  0  0  0  0  0  0  0
   -0.4748    2.7698   -3.1935 C   0  0  0  1  0  0  0  0  0  0  0  0
    0.2786    4.3190   -1.5258 O   0  0  0  1  0  0  0  0  0  0  0  0
    1.2952    2.4248    2.6428 H   0  0  0  1  0  0  0  0  0  0  0  0
    1.1410   -0.3034    3.3132 H   0  0  0  1  0  0  0  0  0  0  0  0
    2.2869    0.8417    3.9675 H   0  0  0  1  0  0  0  0  0  0  0  0
    2.6488   -0.0056    2.4824 H   0  0  0  1  0  0  0  0  0  0  0  0
   -1.5215    2.8806   -3.3859 H   0  0  0  1  0  0  0  0  0  0  0  0
   -0.1954    1.7449   -3.3217 H   0  0  0  1  0  0  0  0  0  0  0  0
    0.0796    3.3793   -3.8761 H   0  0  0  1  0  0  0  0  0  0  0  0
   -4.4198    8.2362    0.3925 I   0  0  0  1  0  0  0  0  0  0  0  0
   -3.4203    6.4256    0.6938 C   0  0  0  1  0  0  0  0  0  0  0  0
   -2.5620    6.2780    1.7722 C   0  0  0  1  0  0  0  0  0  0  0  0
   -1.8972    5.0822    1.9680 C   0  0  0  1  0  0  0  0  0  0  0  0
   -2.0930    4.0286    1.0888 C   0  0  0  1  0  0  0  0  0  0  0  0
   -2.9488    4.1755    0.0135 C   0  0  0  1  0  0  0  0  0  0  0  0
   -3.6155    5.3749   -0.1827 C   0  0  0  1  0  0  0  0  0  0  0  0
   -1.4419    2.6948    1.3692 C   0  0  0  1  0  0  0  0  0  0  0  0
   -2.4182    7.0672    2.4341 H   0  0  0  1  0  0  0  0  0  0  0  0
   -1.2501    4.9729    2.7748 H   0  0  0  1  0  0  0  0  0  0  0  0
   -3.0926    3.3862   -0.6483 H   0  0  0  1  0  0  0  0  0  0  0  0
   -4.2626    5.4842   -0.9895 H   0  0  0  1  0  0  0  0  0  0  0  0
   -1.2261    2.6344    2.4154 H   0  0  0  1  0  0  0  0  0  0  0  0
   -2.1270    1.9181    1.1003 H   0  0  0  1  0  0  0  0  0  0  0  0
  1  4  1  0  0  0  0
  2  4  1  0  0  0  0
  2  5  2  0  0  0  0
  2  6  1  0  0  0  0
  3  4  1  0  0  0  0
  3  7  1  0  0  0  0
  3  8  1  0  0  0  0
  4 26  1  0  0  0  0
  6  9  1  0  0  0  0
  6 12  1  0  0  0  0
  8 10  1  0  0  0  0
  8 11  2  0  0  0  0
  9 13  1  0  0  0  0
  9 14  1  0  0  0  0
  9 15  1  0  0  0  0
 10 16  1  0  0  0  0
 10 17  1  0  0  0  0
 10 18  1  0  0  0  0
 19 20  1  0  0  0  0
 20 21  4  0  0  0  0
 20 25  4  0  0  0  0
 21 22  4  0  0  0  0
 21 27  1  0  0  0  0
 22 23  4  0  0  0  0
 22 28  1  0  0  0  0
 23 24  4  0  0  0  0
 23 26  1  0  0  0  0
 24 25  4  0  0  0  0
 24 29  1  0  0  0  0
 25 30  1  0  0  0  0
 26 31  1  0  0  0  0
 26 32  1  0  0  0  0
M  END
> <BCLConfClusterSize>
1

> <ConfClashScore>
0 

> <ConfOneFourInteractionScore>
-0.986627 

> <ConfScore>
-0.00635749 

> <ConfScorePBest>
0.00475791 

> <ConfTolerance>
0.363087 

> <RosettaParamsInstructions>
M  ROOT 3
M  POLY_N_BB 3
M  POLY_CA_BB 4
M  POLY_C_BB 2
M  POLY_O_BB 5
M  POLY_IGNORE 9 10 11 12 13 14 15 16 17 18 
M  POLY_UPPER 6
M  POLY_LOWER 8
M  POLY_CHG 0
M  POLY_PROPERTIES ALPHA_AA L_AA PROTEIN AROMATIC POLYMER 
M  END

$$$$



 32 32  0  0  0  0  0  0  0  0999 V2000
    0.3713    3.1870    0.2232 H   0  0  0  1  0  0  0  0  0  0  0  0
    0.3528    1.0975    0.4677 C   0  0  0  1  0  0  0  0  0  0  0  0
   -1.0224    2.4405   -1.0932 N   0  0  0  1  0  0  0  0  0  0  0  0
   -0.3655    2.4114    0.2051 C   0  0  0  1  0  0  0  0  0  0  0  0
   -0.0882    0.0337    0.0410 O   0  0  0  1  0  0  0  0  0  0  0  0
    1.4824    1.1844    1.1864 N   0  0  0  1  0  0  0  0  0  0  0  0
   -1.8692    1.9557   -1.1836 H   0  0  0  1  0  0  0  0  0  0  0  0
   -0.5431    3.0987   -2.2055 C   0  0  0  1  0  0  0  0  0  0  0  0
    2.2149    0.0364    1.6998 C   0  0  0  1  0  0  0  0  0  0  0  0
   -1.4425    3.0973   -3.4070 C   0  0  0  1  0  0  0  0  0  0  0  0
    0.5481    3.6354   -2.1736 O   0  0  0  1  0  0  0  0  0  0  0  0
    1.8369    2.0778    1.3778 H   0  0  0  1  0  0  0  0  0  0  0  0
    2.0387   -0.8104    1.0700 H   0  0  0  1  0  0  0  0  0  0  0  0
    1.8830   -0.1829    2.6931 H   0  0  0  1  0  0  0  0  0  0  0  0
    3.2615    0.2586    1.7138 H   0  0  0  1  0  0  0  0  0  0  0  0
   -2.4516    3.2743   -3.0981 H   0  0  0  1  0  0  0  0  0  0  0  0
   -1.3811    2.1481   -3.8971 H   0  0  0  1  0  0  0  0  0  0  0  0
   -1.1361    3.8685   -4.0825 H   0  0  0  1  0  0  0  0  0  0  0  0
   -4.3546    8.2570    0.3230 I   0  0  0  1  0  0  0  0  0  0  0  0
   -3.4384    6.4193    0.7122 C   0  0  0  1  0  0  0  0  0  0  0  0
   -2.5773    6.2714    1.7883 C   0  0  0  1  0  0  0  0  0  0  0  0
   -1.9077    5.0775    1.9788 C   0  0  0  1  0  0  0  0  0  0  0  0
   -2.1014    4.0259    1.0967 C   0  0  0  1  0  0  0  0  0  0  0  0
   -2.9601    4.1731    0.0237 C   0  0  0  1  0  0  0  0  0  0  0  0
   -3.6316    5.3707   -0.1673 C   0  0  0  1  0  0  0  0  0  0  0  0
   -1.3745    2.7188    1.3076 C   0  0  0  1  0  0  0  0  0  0  0  0
   -2.4350    7.0590    2.4524 H   0  0  0  1  0  0  0  0  0  0  0  0
   -1.2585    4.9680    2.7840 H   0  0  0  1  0  0  0  0  0  0  0  0
   -3.1023    3.3854   -0.6404 H   0  0  0  1  0  0  0  0  0  0  0  0
   -4.2807    5.4802   -0.9724 H   0  0  0  1  0  0  0  0  0  0  0  0
   -0.8547    2.7651    2.2417 H   0  0  0  1  0  0  0  0  0  0  0  0
   -2.0958    1.9292    1.3390 H   0  0  0  1  0  0  0  0  0  0  0  0
  1  4  1  0  0  0  0
  2  4  1  0  0  0  0
  2  5  2  0  0  0  0
  2  6  1  0  0  0  0
  3  4  1  0  0  0  0
  3  7  1  0  0  0  0
  3  8  1  0  0  0  0
  4 26  1  0  0  0  0
  6  9  1  0  0  0  0
  6 12  1  0  0  0  0
  8 10  1  0  0  0  0
  8 11  2  0  0  0  0
  9 13  1  0  0  0  0
  9 14  1  0  0  0  0
  9 15  1  0  0  0  0
 10 16  1  0  0  0  0
 10 17  1  0  0  0  0
 10 18  1  0  0  0  0
 19 20  1  0  0  0  0
 20 21  4  0  0  0  0
 20 25  4  0  0  0  0
 21 22  4  0  0  0  0
 21 27  1  0  0  0  0
 22 23  4  0  0  0  0
 22 28  1  0  0  0  0
 23 24  4  0  0  0  0
 23 26  1  0  0  0  0
 24 25  4  0  0  0  0
 24 29  1  0  0  0  0
 25 30  1  0  0  0  0
 26 31  1  0  0  0  0
 26 32  1  0  0  0  0
M  END
> <BCLConfClusterSize>
1

> <ConfClashScore>
0 

> <ConfOneFourInteractionScore>
-0.981931 

> <ConfScore>
-0.00609026 

> <ConfScorePBest>
0.00472943 

> <ConfTolerance>
0.434492 

> <RosettaParamsInstructions>
M  ROOT 3
M  POLY_N_BB 3
M  POLY_CA_BB 4
M  POLY_C_BB 2
M  POLY_O_BB 5
M  POLY_IGNORE 9 10 11 12 13 14 15 16 17 18 
M  POLY_UPPER 6
M  POLY_LOWER 8
M  POLY_CHG 0
M  POLY_PROPERTIES ALPHA_AA L_AA PROTEIN AROMATIC POLYMER 
M  END

$$$$



 32 32  0  0  0  0  0  0  0  0999 V2000
   -1.5922    1.8478   -0.5996 H   0  0  0  1  0  0  0  0  0  0  0  0
   -1.0285    0.3309    0.7689 C   0  0  0  1  0  0  0  0  0  0  0  0
   -3.2483    1.3325    0.5414 N   0  0  0  1  0  0  0  0  0  0  0  0
   -1.8192    1.5739    0.4096 C   0  0  0  1  0  0  0  0  0  0  0  0
    0.1992    0.3249    0.7360 O   0  0  0  1  0  0  0  0  0  0  0  0
   -1.7556   -0.7419    1.1190 N   0  0  0  1  0  0  0  0  0  0  0  0
   -3.6594    1.3994    1.4284 H   0  0  0  1  0  0  0  0  0  0  0  0
   -4.0189    1.0229   -0.5043 C   0  0  0  1  0  0  0  0  0  0  0  0
   -1.0954   -1.9960    1.4493 C   0  0  0  1  0  0  0  0  0  0  0  0
   -5.4893    0.8125   -0.1997 C   0  0  0  1  0  0  0  0  0  0  0  0
   -3.5824    0.9115   -1.6469 O   0  0  0  1  0  0  0  0  0  0  0  0
   -2.7332   -0.6804    1.1522 H   0  0  0  1  0  0  0  0  0  0  0  0
   -0.0346   -1.8563    1.4327 H   0  0  0  1  0  0  0  0  0  0  0  0
   -1.3679   -2.7419    0.7323 H   0  0  0  1  0  0  0  0  0  0  0  0
   -1.3980   -2.3117    2.4258 H   0  0  0  1  0  0  0  0  0  0  0  0
   -5.5948    0.0462    0.5396 H   0  0  0  1  0  0  0  0  0  0  0  0
   -5.9998    0.5187   -1.0930 H   0  0  0  1  0  0  0  0  0  0  0  0
   -5.9108    1.7242    0.1692 H   0  0  0  1  0  0  0  0  0  0  0  0
   -4.4032    8.2433    0.3789 I   0  0  0  1  0  0  0  0  0  0  0  0
   -3.4175    6.4271    0.6918 C   0  0  0  1  0  0  0  0  0  0  0  0
   -2.5641    6.2783    1.7740 C   0  0  0  1  0  0  0  0  0  0  0  0
   -1.9084    5.0788    1.9774 C   0  0  0  1  0  0  0  0  0  0  0  0
   -2.1083    4.0227    1.1021 C   0  0  0  1  0  0  0  0  0  0  0  0
   -2.9591    4.1708    0.0229 C   0  0  0  1  0  0  0  0  0  0  0  0
   -3.6167    5.3740   -0.1809 C   0  0  0  1  0  0  0  0  0  0  0  0
   -1.3965    2.7096    1.3270 C   0  0  0  1  0  0  0  0  0  0  0  0
   -2.4173    7.0693    2.4330 H   0  0  0  1  0  0  0  0  0  0  0  0
   -1.2651    4.9685    2.7871 H   0  0  0  1  0  0  0  0  0  0  0  0
   -3.1058    3.3797   -0.6360 H   0  0  0  1  0  0  0  0  0  0  0  0
   -4.2600    5.4843   -0.9906 H   0  0  0  1  0  0  0  0  0  0  0  0
   -0.3485    2.8741    1.1873 H   0  0  0  1  0  0  0  0  0  0  0  0
   -1.5787    2.4040    2.3361 H   0  0  0  1  0  0  0  0  0  0  0  0
  1  4  1  0  0  0  0
  2  4  1  0  0  0  0
  2  5  2  0  0  0  0
  2  6  1  0  0  0  0
  3  4  1  0  0  0  0
  3  7  1  0  0  0  0
  3  8  1  0  0  0  0
  4 26  1  0  0  0  0
  6  9  1  0  0  0  0
  6 12  1  0  0  0  0
  8 10  1  0  0  0  0
  8 11  2  0  0  0  0
  9 13  1  0  0  0  0
  9 14  1  0  0  0  0
  9 15  1  0  0  0  0
 10 16  1  0  0  0  0
 10 17  1  0  0  0  0
 10 18  1  0  0  0  0
 19 20  1  0  0  0  0
 20 21  4  0  0  0  0
 20 25  4  0  0  0  0
 21 22  4  0  0  0  0
 21 27  1  0  0  0  0
 22 23  4  0  0  0  0
 22 28  1  0  0  0  0
 23 24  4  0  0  0  0
 23 26  1  0  0  0  0
 24 25  4  0  0  0  0
 24 29  1  0  0  0  0
 25 30  1  0  0  0  0
 26 31  1  0  0  0  0
 26 32  1  0  0  0  0
M  END
> <BCLConfClusterSize>
1

> <ConfClashScore>
0 

> <ConfOneFourInteractionScore>
-0.934209 

> <ConfScore>
-0.00543614 

> <ConfScorePBest>
0.00470095 

> <ConfTolerance>
0.480903 

> <RosettaParamsInstructions>
M  ROOT 3
M  POLY_N_BB 3
M  POLY_CA_BB 4
M  POLY_C_BB 2
M  POLY_O_BB 5
M  POLY_IGNORE 9 10 11 12 13 14 15 16 17 18 
M  POLY_UPPER 6
M  POLY_LOWER 8
M  POLY_CHG 0
M  POLY_PROPERTIES ALPHA_AA L_AA PROTEIN AROMATIC POLYMER 
M  END

$$$$



 32 32  0  0  0  0  0  0  0  0999 V2000
   -0.2462    2.8898   -0.4275 H   0  0  0  1  0  0  0  0  0  0  0  0
    1.0103    3.5550    1.1180 C   0  0  0  1  0  0  0  0  0  0  0  0
    0.4206    1.2254    0.6044 N   0  0  0  1  0  0  0  0  0  0  0  0
   -0.0654    2.6193    0.5918 C   0  0  0  1  0  0  0  0  0  0  0  0
    1.8522    3.1688    1.9245 O   0  0  0  1  0  0  0  0  0  0  0  0
    0.9733    4.8049    0.6475 N   0  0  0  1  0  0  0  0  0  0  0  0
   -0.0752    0.5775    1.1474 H   0  0  0  1  0  0  0  0  0  0  0  0
    1.4837    0.7812   -0.0678 C   0  0  0  1  0  0  0  0  0  0  0  0
    1.9771    5.7981    0.9992 C   0  0  0  1  0  0  0  0  0  0  0  0
    1.8657   -0.6644    0.1843 C   0  0  0  1  0  0  0  0  0  0  0  0
    2.1257    1.4847   -0.8466 O   0  0  0  1  0  0  0  0  0  0  0  0
    0.2447    5.0618    0.0444 H   0  0  0  1  0  0  0  0  0  0  0  0
    2.9435    5.3390    1.0153 H   0  0  0  1  0  0  0  0  0  0  0  0
    1.7573    6.1999    1.9663 H   0  0  0  1  0  0  0  0  0  0  0  0
    1.9685    6.5856    0.2749 H   0  0  0  1  0  0  0  0  0  0  0  0
    2.9310   -0.7478    0.2402 H   0  0  0  1  0  0  0  0  0  0  0  0
    1.5020   -1.2739   -0.6164 H   0  0  0  1  0  0  0  0  0  0  0  0
    1.4336   -0.9915    1.1069 H   0  0  0  1  0  0  0  0  0  0  0  0
   -4.4282    8.2202    0.3317 I   0  0  0  1  0  0  0  0  0  0  0  0
   -3.4115    6.4323    0.7029 C   0  0  0  1  0  0  0  0  0  0  0  0
   -2.5568    6.2769    1.7831 C   0  0  0  1  0  0  0  0  0  0  0  0
   -1.9042    5.0747    1.9808 C   0  0  0  1  0  0  0  0  0  0  0  0
   -2.1085    4.0226    1.1017 C   0  0  0  1  0  0  0  0  0  0  0  0
   -2.9606    4.1774    0.0245 C   0  0  0  1  0  0  0  0  0  0  0  0
   -3.6151    5.3832   -0.1735 C   0  0  0  1  0  0  0  0  0  0  0  0
   -1.4001    2.7066    1.3203 C   0  0  0  1  0  0  0  0  0  0  0  0
   -2.4067    7.0649    2.4450 H   0  0  0  1  0  0  0  0  0  0  0  0
   -1.2599    4.9595    2.7890 H   0  0  0  1  0  0  0  0  0  0  0  0
   -3.1108    3.3893   -0.6372 H   0  0  0  1  0  0  0  0  0  0  0  0
   -4.2595    5.4985   -0.9817 H   0  0  0  1  0  0  0  0  0  0  0  0
   -1.2245    2.5845    2.3687 H   0  0  0  1  0  0  0  0  0  0  0  0
   -2.0319    1.9174    0.9696 H   0  0  0  1  0  0  0  0  0  0  0  0
  1  4  1  0  0  0  0
  2  4  1  0  0  0  0
  2  5  2  0  0  0  0
  2  6  1  0  0  0  0
  3  4  1  0  0  0  0
  3  7  1  0  0  0  0
  3  8  1  0  0  0  0
  4 26  1  0  0  0  0
  6  9  1  0  0  0  0
  6 12  1  0  0  0  0
  8 10  1  0  0  0  0
  8 11  2  0  0  0  0
  9 13  1  0  0  0  0
  9 14  1  0  0  0  0
  9 15  1  0  0  0  0
 10 16  1  0  0  0  0
 10 17  1  0  0  0  0
 10 18  1  0  0  0  0
 19 20  1  0  0  0  0
 20 21  4  0  0  0  0
 20 25  4  0  0  0  0
 21 22  4  0  0  0  0
 21 27  1  0  0  0  0
 22 23  4  0  0  0  0
 22 28  1  0  0  0  0
 23 24  4  0  0  0  0
 23 26  1  0  0  0  0
 24 25  4  0  0  0  0
 24 29  1  0  0  0  0
 25 30  1  0  0  0  0
 26 31  1  0  0  0  0
 26 32  1  0  0  0  0
M  END
> <BCLConfClusterSize>
1

> <ConfClashScore>
0 

> <ConfOneFourInteractionScore>
-0.985807 

> <ConfScore>
-0.00468399 

> <ConfScorePBest>
0.00467247 

> <ConfTolerance>
0.275133 

> <RosettaParamsInstructions>
M  ROOT 3
M  POLY_N_BB 3
M  POLY_CA_BB 4
M  POLY_C_BB 2
M  POLY_O_BB 5
M  POLY_IGNORE 9 10 11 12 13 14 15 16 17 18 
M  POLY_UPPER 6
M  POLY_LOWER 8
M  POLY_CHG 0
M  POLY_PROPERTIES ALPHA_AA L_AA PROTEIN AROMATIC POLYMER 
M  END

$$$$



 32 32  0  0  0  0  0  0  0  0999 V2000
   -1.5816    0.9467    2.4592 H   0  0  0  1  0  0  0  0  0  0  0  0
   -2.7433    2.4192    3.4333 C   0  0  0  1  0  0  0  0  0  0  0  0
   -3.2850    1.2682    1.3328 N   0  0  0  1  0  0  0  0  0  0  0  0
   -2.2044    1.7674    2.1701 C   0  0  0  1  0  0  0  0  0  0  0  0
   -2.1227    2.3136    4.4904 O   0  0  0  1  0  0  0  0  0  0  0  0
   -3.8519    3.1638    3.3038 N   0  0  0  1  0  0  0  0  0  0  0  0
   -3.2978    1.5100    0.3832 H   0  0  0  1  0  0  0  0  0  0  0  0
   -4.2697    0.4842    1.8184 C   0  0  0  1  0  0  0  0  0  0  0  0
   -4.4140    3.8450    4.4605 C   0  0  0  1  0  0  0  0  0  0  0  0
   -5.2474   -0.1080    0.8426 C   0  0  0  1  0  0  0  0  0  0  0  0
   -4.3667    0.2590    3.0240 O   0  0  0  1  0  0  0  0  0  0  0  0
   -4.2840    3.2492    2.4283 H   0  0  0  1  0  0  0  0  0  0  0  0
   -5.4537    4.0345    4.2930 H   0  0  0  1  0  0  0  0  0  0  0  0
   -3.9024    4.7726    4.6113 H   0  0  0  1  0  0  0  0  0  0  0  0
   -4.2992    3.2287    5.3276 H   0  0  0  1  0  0  0  0  0  0  0  0
   -6.0943    0.5390    0.7483 H   0  0  0  1  0  0  0  0  0  0  0  0
   -5.5681   -1.0657    1.1961 H   0  0  0  1  0  0  0  0  0  0  0  0
   -4.7758   -0.2191   -0.1114 H   0  0  0  1  0  0  0  0  0  0  0  0
   -4.3521    8.2591    0.3277 I   0  0  0  1  0  0  0  0  0  0  0  0
   -3.4387    6.4189    0.7116 C   0  0  0  1  0  0  0  0  0  0  0  0
   -2.5767    6.2671    1.7865 C   0  0  0  1  0  0  0  0  0  0  0  0
   -1.9090    5.0715    1.9736 C   0  0  0  1  0  0  0  0  0  0  0  0
   -2.1055    4.0224    1.0892 C   0  0  0  1  0  0  0  0  0  0  0  0
   -2.9649    4.1735    0.0173 C   0  0  0  1  0  0  0  0  0  0  0  0
   -3.6345    5.3727   -0.1701 C   0  0  0  1  0  0  0  0  0  0  0  0
   -1.3555    2.7361    1.3434 C   0  0  0  1  0  0  0  0  0  0  0  0
   -2.4324    7.0529    2.4523 H   0  0  0  1  0  0  0  0  0  0  0  0
   -1.2592    4.9591    2.7778 H   0  0  0  1  0  0  0  0  0  0  0  0
   -3.1092    3.3877   -0.6484 H   0  0  0  1  0  0  0  0  0  0  0  0
   -4.2843    5.4852   -0.9743 H   0  0  0  1  0  0  0  0  0  0  0  0
   -1.1145    2.2795    0.4063 H   0  0  0  1  0  0  0  0  0  0  0  0
   -0.4539    2.9552    1.8764 H   0  0  0  1  0  0  0  0  0  0  0  0
  1  4  1  0  0  0  0
  2  4  1  0  0  0  0
  2  5  2  0  0  0  0
  2  6  1  0  0  0  0
  3  4  1  0  0  0  0
  3  7  1  0  0  0  0
  3  8  1  0  0  0  0
  4 26  1  0  0  0  0
  6  9  1  0  0  0  0
  6 12  1  0  0  0  0
  8 10  1  0  0  0  0
  8 11  2  0  0  0  0
  9 13  1  0  0  0  0
  9 14  1  0  0  0  0
  9 15  1  0  0  0  0
 10 16  1  0  0  0  0
 10 17  1  0  0  0  0
 10 18  1  0  0  0  0
 19 20  1  0  0  0  0
 20 21  4  0  0  0  0
 20 25  4  0  0  0  0
 21 22  4  0  0  0  0
 21 27  1  0  0  0  0
 22 23  4  0  0  0  0
 22 28  1  0  0  0  0
 23 24  4  0  0  0  0
 23 26  1  0  0  0  0
 24 25  4  0  0  0  0
 24 29  1  0  0  0  0
 25 30  1  0  0  0  0
 26 31  1  0  0  0  0
 26 32  1  0  0  0  0
M  END
> <BCLConfClusterSize>
1

> <ConfClashScore>
0 

> <ConfOneFourInteractionScore>
-0.957074 

> <ConfScore>
-0.00348354 

> <ConfScorePBest>
0.00464399 

> <ConfTolerance>
0.34783 

> <RosettaParamsInstructions>
M  ROOT 3
M  POLY_N_BB 3
M  POLY_CA_BB 4
M  POLY_C_BB 2
M  POLY_O_BB 5
M  POLY_IGNORE 9 10 11 12 13 14 15 16 17 18 
M  POLY_UPPER 6
M  POLY_LOWER 8
M  POLY_CHG 0
M  POLY_PROPERTIES ALPHA_AA L_AA PROTEIN AROMATIC POLYMER 
M  END

$$$$



 32 32  0  0  0  0  0  0  0  0999 V2000
   -2.1176    2.3115    3.2366 H   0  0  0  1  0  0  0  0  0  0  0  0
   -3.4483    1.4004    1.8781 C   0  0  0  1  0  0  0  0  0  0  0  0
   -1.1815    0.6148    2.5226 N   0  0  0  1  0  0  0  0  0  0  0  0
   -2.0445    1.7685    2.3175 C   0  0  0  1  0  0  0  0  0  0  0  0
   -4.3905    1.9846    2.4114 O   0  0  0  1  0  0  0  0  0  0  0  0
   -3.5887    0.4662    0.9401 N   0  0  0  1  0  0  0  0  0  0  0  0
   -0.7021    0.2567    1.7464 H   0  0  0  1  0  0  0  0  0  0  0  0
   -1.0011    0.0127    3.7016 C   0  0  0  1  0  0  0  0  0  0  0  0
   -4.8925   -0.0313    0.5274 C   0  0  0  1  0  0  0  0  0  0  0  0
    0.0788   -1.0511    3.7395 C   0  0  0  1  0  0  0  0  0  0  0  0
   -1.6593    0.2903    4.7032 O   0  0  0  1  0  0  0  0  0  0  0  0
   -2.7861    0.1008    0.5126 H   0  0  0  1  0  0  0  0  0  0  0  0
   -5.3508   -0.5512    1.3425 H   0  0  0  1  0  0  0  0  0  0  0  0
   -4.7736   -0.6995   -0.2998 H   0  0  0  1  0  0  0  0  0  0  0  0
   -5.5119    0.7912    0.2360 H   0  0  0  1  0  0  0  0  0  0  0  0
    1.0268   -0.6057    3.5207 H   0  0  0  1  0  0  0  0  0  0  0  0
   -0.1375   -1.8047    3.0114 H   0  0  0  1  0  0  0  0  0  0  0  0
    0.1092   -1.4935    4.7133 H   0  0  0  1  0  0  0  0  0  0  0  0
   -4.4307    8.2176    0.3267 I   0  0  0  1  0  0  0  0  0  0  0  0
   -3.4111    6.4326    0.7036 C   0  0  0  1  0  0  0  0  0  0  0  0
   -2.5573    6.2814    1.7851 C   0  0  0  1  0  0  0  0  0  0  0  0
   -1.9027    5.0809    1.9864 C   0  0  0  1  0  0  0  0  0  0  0  0
   -2.1041    4.0263    1.1098 C   0  0  0  1  0  0  0  0  0  0  0  0
   -2.9554    4.1768    0.0313 C   0  0  0  1  0  0  0  0  0  0  0  0
   -3.6119    5.3809   -0.1705 C   0  0  0  1  0  0  0  0  0  0  0  0
   -1.4215    2.6899    1.2816 C   0  0  0  1  0  0  0  0  0  0  0  0
   -2.4093    7.0714    2.4451 H   0  0  0  1  0  0  0  0  0  0  0  0
   -1.2590    4.9689    2.7956 H   0  0  0  1  0  0  0  0  0  0  0  0
   -3.1034    3.3867   -0.6286 H   0  0  0  1  0  0  0  0  0  0  0  0
   -4.2556    5.4929   -0.9796 H   0  0  0  1  0  0  0  0  0  0  0  0
   -1.4400    2.1860    0.3379 H   0  0  0  1  0  0  0  0  0  0  0  0
   -0.4071    2.8720    1.5694 H   0  0  0  1  0  0  0  0  0  0  0  0
  1  4  1  0  0  0  0
  2  4  1  0  0  0  0
  2  5  2  0  0  0  0
  2  6  1  0  0  0  0
  3  4  1  0  0  0  0
  3  7  1  0  0  0  0
  3  8  1  0  0  0  0
  4 26  1  0  0  0  0
  6  9  1  0  0  0  0
  6 12  1  0  0  0  0
  8 10  1  0  0  0  0
  8 11  2  0  0  0  0
  9 13  1  0  0  0  0
  9 14  1  0  0  0  0
  9 15  1  0  0  0  0
 10 16  1  0  0  0  0
 10 17  1  0  0  0  0
 10 18  1  0  0  0  0
 19 20  1  0  0  0  0
 20 21  4  0  0  0  0
 20 25  4  0  0  0  0
 21 22  4  0  0  0  0
 21 27  1  0  0  0  0
 22 23  4  0  0  0  0
 22 28  1  0  0  0  0
 23 24  4  0  0  0  0
 23 26  1  0  0  0  0
 24 25  4  0  0  0  0
 24 29  1  0  0  0  0
 25 30  1  0  0  0  0
 26 31  1  0  0  0  0
 26 32  1  0  0  0  0
M  END
> <BCLConfClusterSize>
1

> <ConfClashScore>
0 

> <ConfOneFourInteractionScore>
-0.948581 

> <ConfScore>
-0.00138701 

> <ConfScorePBest>
0.00461551 

> <ConfTolerance>
0.331722 

> <RosettaParamsInstructions>
M  ROOT 3
M  POLY_N_BB 3
M  POLY_CA_BB 4
M  POLY_C_BB 2
M  POLY_O_BB 5
M  POLY_IGNORE 9 10 11 12 13 14 15 16 17 18 
M  POLY_UPPER 6
M  POLY_LOWER 8
M  POLY_CHG 0
M  POLY_PROPERTIES ALPHA_AA L_AA PROTEIN AROMATIC POLYMER 
M  END

$$$$



 32 32  0  0  0  0  0  0  0  0999 V2000
   -3.0215    1.4708    1.8404 H   0  0  0  1  0  0  0  0  0  0  0  0
   -1.3167    0.5680    2.6817 C   0  0  0  1  0  0  0  0  0  0  0  0
   -2.4800    2.6279    3.4685 N   0  0  0  1  0  0  0  0  0  0  0  0
   -2.1193    1.8002    2.3120 C   0  0  0  1  0  0  0  0  0  0  0  0
   -0.5249    0.5811    3.6205 O   0  0  0  1  0  0  0  0  0  0  0  0
   -1.5313   -0.5174    1.9215 N   0  0  0  1  0  0  0  0  0  0  0  0
   -1.8646    2.6706    4.2299 H   0  0  0  1  0  0  0  0  0  0  0  0
   -3.6183    3.3256    3.5195 C   0  0  0  1  0  0  0  0  0  0  0  0
   -0.8356   -1.7754    2.1485 C   0  0  0  1  0  0  0  0  0  0  0  0
   -3.8601    4.0987    4.8013 C   0  0  0  1  0  0  0  0  0  0  0  0
   -4.4290    3.3510    2.5972 O   0  0  0  1  0  0  0  0  0  0  0  0
   -2.1789   -0.4608    1.1882 H   0  0  0  1  0  0  0  0  0  0  0  0
   -0.0314   -1.8700    1.4491 H   0  0  0  1  0  0  0  0  0  0  0  0
   -1.5185   -2.5888    2.0186 H   0  0  0  1  0  0  0  0  0  0  0  0
   -0.4454   -1.7921    3.1447 H   0  0  0  1  0  0  0  0  0  0  0  0
   -4.0312    3.4134    5.6050 H   0  0  0  1  0  0  0  0  0  0  0  0
   -4.7169    4.7285    4.6814 H   0  0  0  1  0  0  0  0  0  0  0  0
   -3.0030    4.7000    5.0219 H   0  0  0  1  0  0  0  0  0  0  0  0
   -4.4032    8.2433    0.3789 I   0  0  0  1  0  0  0  0  0  0  0  0
   -3.4175    6.4271    0.6918 C   0  0  0  1  0  0  0  0  0  0  0  0
   -2.5641    6.2783    1.7740 C   0  0  0  1  0  0  0  0  0  0  0  0
   -1.9084    5.0788    1.9774 C   0  0  0  1  0  0  0  0  0  0  0  0
   -2.1083    4.0227    1.1021 C   0  0  0  1  0  0  0  0  0  0  0  0
   -2.9591    4.1708    0.0229 C   0  0  0  1  0  0  0  0  0  0  0  0
   -3.6167    5.3740   -0.1809 C   0  0  0  1  0  0  0  0  0  0  0  0
   -1.3965    2.7096    1.3270 C   0  0  0  1  0  0  0  0  0  0  0  0
   -2.4173    7.0693    2.4330 H   0  0  0  1  0  0  0  0  0  0  0  0
   -1.2651    4.9685    2.7871 H   0  0  0  1  0  0  0  0  0  0  0  0
   -3.1058    3.3797   -0.6360 H   0  0  0  1  0  0  0  0  0  0  0  0
   -4.2600    5.4843   -0.9906 H   0  0  0  1  0  0  0  0  0  0  0  0
   -1.3165    2.2006    0.3892 H   0  0  0  1  0  0  0  0  0  0  0  0
   -0.4174    2.9137    1.7073 H   0  0  0  1  0  0  0  0  0  0  0  0
  1  4  1  0  0  0  0
  2  4  1  0  0  0  0
  2  5  2  0  0  0  0
  2  6  1  0  0  0  0
  3  4  1  0  0  0  0
  3  7  1  0  0  0  0
  3  8  1  0  0  0  0
  4 26  1  0  0  0  0
  6  9  1  0  0  0  0
  6 12  1  0  0  0  0
  8 10  1  0  0  0  0
  8 11  2  0  0  0  0
  9 13  1  0  0  0  0
  9 14  1  0  0  0  0
  9 15  1  0  0  0  0
 10 16  1  0  0  0  0
 10 17  1  0  0  0  0
 10 18  1  0  0  0  0
 19 20  1  0  0  0  0
 20 21  4  0  0  0  0
 20 25  4  0  0  0  0
 21 22  4  0  0  0  0
 21 27  1  0  0  0  0
 22 23  4  0  0  0  0
 22 28  1  0  0  0  0
 23 24  4  0  0  0  0
 23 26  1  0  0  0  0
 24 25  4  0  0  0  0
 24 29  1  0  0  0  0
 25 30  1  0  0  0  0
 26 31  1  0  0  0  0
 26 32  1  0  0  0  0
M  END
> <BCLConfClusterSize>
1

> <ConfClashScore>
0 

> <ConfOneFourInteractionScore>
-0.976985 

> <ConfScore>
0.000336364 

> <ConfScorePBest>
0.00458703 

> <ConfTolerance>
0.390535 

> <RosettaParamsInstructions>
M  ROOT 3
M  POLY_N_BB 3
M  POLY_CA_BB 4
M  POLY_C_BB 2
M  POLY_O_BB 5
M  POLY_IGNORE 9 10 11 12 13 14 15 16 17 18 
M  POLY_UPPER 6
M  POLY_LOWER 8
M  POLY_CHG 0
M  POLY_PROPERTIES ALPHA_AA L_AA PROTEIN AROMATIC POLYMER 
M  END

$$$$



 32 32  0  0  0  0  0  0  0  0999 V2000
   -1.0171    1.1860    2.7252 H   0  0  0  1  0  0  0  0  0  0  0  0
   -1.0466    2.9569    3.8556 C   0  0  0  1  0  0  0  0  0  0  0  0
   -2.9915    1.7667    2.9360 N   0  0  0  1  0  0  0  0  0  0  0  0
   -1.5711    2.1013    2.7123 C   0  0  0  1  0  0  0  0  0  0  0  0
    0.1606    3.1103    4.0364 O   0  0  0  1  0  0  0  0  0  0  0  0
   -1.9804    3.5214    4.6376 N   0  0  0  1  0  0  0  0  0  0  0  0
   -3.6260    1.9832    2.2211 H   0  0  0  1  0  0  0  0  0  0  0  0
   -3.4813    1.1862    4.0488 C   0  0  0  1  0  0  0  0  0  0  0  0
   -1.7028    4.3494    5.8017 C   0  0  0  1  0  0  0  0  0  0  0  0
   -4.9766    0.9028    3.9840 C   0  0  0  1  0  0  0  0  0  0  0  0
   -2.8197    0.9017    5.0305 O   0  0  0  1  0  0  0  0  0  0  0  0
   -2.9198    3.3640    4.4071 H   0  0  0  1  0  0  0  0  0  0  0  0
   -0.7886    4.0304    6.2571 H   0  0  0  1  0  0  0  0  0  0  0  0
   -2.5033    4.2551    6.5053 H   0  0  0  1  0  0  0  0  0  0  0  0
   -1.6122    5.3716    5.4986 H   0  0  0  1  0  0  0  0  0  0  0  0
   -5.4403    1.2221    4.8939 H   0  0  0  1  0  0  0  0  0  0  0  0
   -5.1349   -0.1473    3.8527 H   0  0  0  1  0  0  0  0  0  0  0  0
   -5.4048    1.4344    3.1601 H   0  0  0  1  0  0  0  0  0  0  0  0
   -4.4032    8.2433    0.3789 I   0  0  0  1  0  0  0  0  0  0  0  0
   -3.4175    6.4271    0.6918 C   0  0  0  1  0  0  0  0  0  0  0  0
   -2.5641    6.2783    1.7740 C   0  0  0  1  0  0  0  0  0  0  0  0
   -1.9084    5.0788    1.9774 C   0  0  0  1  0  0  0  0  0  0  0  0
   -2.1083    4.0227    1.1021 C   0  0  0  1  0  0  0  0  0  0  0  0
   -2.9591    4.1708    0.0229 C   0  0  0  1  0  0  0  0  0  0  0  0
   -3.6167    5.3740   -0.1809 C   0  0  0  1  0  0  0  0  0  0  0  0
   -1.3965    2.7096    1.3270 C   0  0  0  1  0  0  0  0  0  0  0  0
   -2.4173    7.0693    2.4330 H   0  0  0  1  0  0  0  0  0  0  0  0
   -1.2651    4.9685    2.7871 H   0  0  0  1  0  0  0  0  0  0  0  0
   -3.1058    3.3797   -0.6360 H   0  0  0  1  0  0  0  0  0  0  0  0
   -4.2600    5.4843   -0.9906 H   0  0  0  1  0  0  0  0  0  0  0  0
   -1.7653    2.0070    0.6091 H   0  0  0  1  0  0  0  0  0  0  0  0
   -0.3508    2.8692    1.1660 H   0  0  0  1  0  0  0  0  0  0  0  0
  1  4  1  0  0  0  0
  2  4  1  0  0  0  0
  2  5  2  0  0  0  0
  2  6  1  0  0  0  0
  3  4  1  0  0  0  0
  3  7  1  0  0  0  0
  3  8  1  0  0  0  0
  4 26  1  0  0  0  0
  6  9  1  0  0  0  0
  6 12  1  0  0  0  0
  8 10  1  0  0  0  0
  8 11  2  0  0  0  0
  9 13  1  0  0  0  0
  9 14  1  0  0  0  0
  9 15  1  0  0  0  0
 10 16  1  0  0  0  0
 10 17  1  0  0  0  0
 10 18  1  0  0  0  0
 19 20  1  0  0  0  0
 20 21  4  0  0  0  0
 20 25  4  0  0  0  0
 21 22  4  0  0  0  0
 21 27  1  0  0  0  0
 22 23  4  0  0  0  0
 22 28  1  0  0  0  0
 23 24  4  0  0  0  0
 23 26  1  0  0  0  0
 24 25  4  0  0  0  0
 24 29  1  0  0  0  0
 25 30  1  0  0  0  0
 26 31  1  0  0  0  0
 26 32  1  0  0  0  0
M  END
> <BCLConfClusterSize>
1

> <ConfClashScore>
0 

> <ConfOneFourInteractionScore>
-0.950605 

> <ConfScore>
0.00342228 

> <ConfScorePBest>
0.00455855 

> <ConfTolerance>
0.404519 

> <RosettaParamsInstructions>
M  ROOT 3
M  POLY_N_BB 3
M  POLY_CA_BB 4
M  POLY_C_BB 2
M  POLY_O_BB 5
M  POLY_IGNORE 9 10 11 12 13 14 15 16 17 18 
M  POLY_UPPER 6
M  POLY_LOWER 8
M  POLY_CHG 0
M  POLY_PROPERTIES ALPHA_AA L_AA PROTEIN AROMATIC POLYMER 
M  END

$$$$



 32 32  0  0  0  0  0  0  0  0999 V2000
    0.0324    3.0925   -0.1856 H   0  0  0  1  0  0  0  0  0  0  0  0
    0.3594    1.1212    0.5110 C   0  0  0  1  0  0  0  0  0  0  0  0
   -1.4299    1.8641   -0.9751 N   0  0  0  1  0  0  0  0  0  0  0  0
   -0.5704    2.2655    0.1269 C   0  0  0  1  0  0  0  0  0  0  0  0
    0.0279   -0.0549    0.3677 O   0  0  0  1  0  0  0  0  0  0  0  0
    1.5393    1.5276    1.0059 N   0  0  0  1  0  0  0  0  0  0  0  0
   -2.4025    1.8469   -0.8555 H   0  0  0  1  0  0  0  0  0  0  0  0
   -0.8914    1.5152   -2.1619 C   0  0  0  1  0  0  0  0  0  0  0  0
    2.6145    0.5970    1.3152 C   0  0  0  1  0  0  0  0  0  0  0  0
   -1.8296    1.0737   -3.2682 C   0  0  0  1  0  0  0  0  0  0  0  0
    0.3248    1.5532   -2.3437 O   0  0  0  1  0  0  0  0  0  0  0  0
    1.6814    2.4842    1.1643 H   0  0  0  1  0  0  0  0  0  0  0  0
    2.5395   -0.2599    0.6788 H   0  0  0  1  0  0  0  0  0  0  0  0
    2.5370    0.2898    2.3372 H   0  0  0  1  0  0  0  0  0  0  0  0
    3.5577    1.0769    1.1571 H   0  0  0  1  0  0  0  0  0  0  0  0
   -2.6032    1.8024   -3.3925 H   0  0  0  1  0  0  0  0  0  0  0  0
   -2.2658    0.1312   -3.0107 H   0  0  0  1  0  0  0  0  0  0  0  0
   -1.2819    0.9759   -4.1822 H   0  0  0  1  0  0  0  0  0  0  0  0
   -4.4032    8.2433    0.3789 I   0  0  0  1  0  0  0  0  0  0  0  0
   -3.4175    6.4271    0.6918 C   0  0  0  1  0  0  0  0  0  0  0  0
   -2.5641    6.2783    1.7740 C   0  0  0  1  0  0  0  0  0  0  0  0
   -1.9084    5.0788    1.9774 C   0  0  0  1  0  0  0  0  0  0  0  0
   -2.1083    4.0227    1.1021 C   0  0  0  1  0  0  0  0  0  0  0  0
   -2.9591    4.1708    0.0229 C   0  0  0  1  0  0  0  0  0  0  0  0
   -3.6167    5.3740   -0.1809 C   0  0  0  1  0  0  0  0  0  0  0  0
   -1.3965    2.7096    1.3270 C   0  0  0  1  0  0  0  0  0  0  0  0
   -2.4173    7.0693    2.4330 H   0  0  0  1  0  0  0  0  0  0  0  0
   -1.2651    4.9685    2.7871 H   0  0  0  1  0  0  0  0  0  0  0  0
   -3.1058    3.3797   -0.6360 H   0  0  0  1  0  0  0  0  0  0  0  0
   -4.2600    5.4843   -0.9906 H   0  0  0  1  0  0  0  0  0  0  0  0
   -0.7446    2.8154    2.1688 H   0  0  0  1  0  0  0  0  0  0  0  0
   -2.1281    1.9568    1.5342 H   0  0  0  1  0  0  0  0  0  0  0  0
  1  4  1  0  0  0  0
  2  4  1  0  0  0  0
  2  5  2  0  0  0  0
  2  6  1  0  0  0  0
  3  4  1  0  0  0  0
  3  7  1  0  0  0  0
  3  8  1  0  0  0  0
  4 26  1  0  0  0  0
  6  9  1  0  0  0  0
  6 12  1  0  0  0  0
  8 10  1  0  0  0  0
  8 11  2  0  0  0  0
  9 13  1  0  0  0  0
  9 14  1  0  0  0  0
  9 15  1  0  0  0  0
 10 16  1  0  0  0  0
 10 17  1  0  0  0  0
 10 18  1  0  0  0  0
 19 20  1  0  0  0  0
 20 21  4  0  0  0  0
 20 25  4  0  0  0  0
 21 22  4  0  0  0  0
 21 27  1  0  0  0  0
 22 23  4  0  0  0  0
 22 28  1  0  0  0  0
 23 24  4  0  0  0  0
 23 26  1  0  0  0  0
 24 25  4  0  0  0  0
 24 29  1  0  0  0  0
 25 30  1  0  0  0  0
 26 31  1  0  0  0  0
 26 32  1  0  0  0  0
M  END
> <BCLConfClusterSize>
1

> <ConfClashScore>
0 

> <ConfOneFourInteractionScore>
-0.974251 

> <ConfScore>
0.00670887 

> <ConfScorePBest>
0.00453007 

> <ConfTolerance>
0.337396 

> <RosettaParamsInstructions>
M  ROOT 3
M  POLY_N_BB 3
M  POLY_CA_BB 4
M  POLY_C_BB 2
M  POLY_O_BB 5
M  POLY_IGNORE 9 10 11 12 13 14 15 16 17 18 
M  POLY_UPPER 6
M  POLY_LOWER 8
M  POLY_CHG 0
M  POLY_PROPERTIES ALPHA_AA L_AA PROTEIN AROMATIC POLYMER 
M  END

$$$$



 32 32  0  0  0  0  0  0  0  0999 V2000
   -2.0297    2.5836    3.3656 H   0  0  0  1  0  0  0  0  0  0  0  0
   -3.5518    1.7246    2.1529 C   0  0  0  1  0  0  0  0  0  0  0  0
   -1.4649    0.6830    2.7460 N   0  0  0  1  0  0  0  0  0  0  0  0
   -2.0843    1.9743    2.4876 C   0  0  0  1  0  0  0  0  0  0  0  0
   -3.8796    0.8455    1.3570 O   0  0  0  1  0  0  0  0  0  0  0  0
   -4.4159    2.5749    2.7207 N   0  0  0  1  0  0  0  0  0  0  0  0
   -1.5665   -0.0314    2.0828 H   0  0  0  1  0  0  0  0  0  0  0  0
   -0.7626    0.4375    3.8557 C   0  0  0  1  0  0  0  0  0  0  0  0
   -5.8522    2.4838    2.5042 C   0  0  0  1  0  0  0  0  0  0  0  0
   -0.2526   -0.9818    4.0121 C   0  0  0  1  0  0  0  0  0  0  0  0
   -0.5361    1.2883    4.7003 O   0  0  0  1  0  0  0  0  0  0  0  0
   -4.0693    3.2834    3.3023 H   0  0  0  1  0  0  0  0  0  0  0  0
   -6.1165    1.4709    2.2828 H   0  0  0  1  0  0  0  0  0  0  0  0
   -6.1294    3.1120    1.6836 H   0  0  0  1  0  0  0  0  0  0  0  0
   -6.3665    2.8016    3.3870 H   0  0  0  1  0  0  0  0  0  0  0  0
    0.6273   -1.1127    3.4176 H   0  0  0  1  0  0  0  0  0  0  0  0
   -1.0065   -1.6690    3.6890 H   0  0  0  1  0  0  0  0  0  0  0  0
   -0.0188   -1.1654    5.0400 H   0  0  0  1  0  0  0  0  0  0  0  0
   -4.3790    8.2629    0.4232 I   0  0  0  1  0  0  0  0  0  0  0  0
   -3.4231    6.4223    0.6814 C   0  0  0  1  0  0  0  0  0  0  0  0
   -2.5710    6.2797    1.7654 C   0  0  0  1  0  0  0  0  0  0  0  0
   -1.9124    5.0827    1.9742 C   0  0  0  1  0  0  0  0  0  0  0  0
   -2.1081    4.0229    1.1024 C   0  0  0  1  0  0  0  0  0  0  0  0
   -2.9577    4.1649    0.0214 C   0  0  0  1  0  0  0  0  0  0  0  0
   -3.6181    5.3656   -0.1878 C   0  0  0  1  0  0  0  0  0  0  0  0
   -1.3932    2.7125    1.3331 C   0  0  0  1  0  0  0  0  0  0  0  0
   -2.4273    7.0735    2.4218 H   0  0  0  1  0  0  0  0  0  0  0  0
   -1.2701    4.9771    2.7853 H   0  0  0  1  0  0  0  0  0  0  0  0
   -3.1013    3.3710   -0.6349 H   0  0  0  1  0  0  0  0  0  0  0  0
   -4.2605    5.4712   -0.9989 H   0  0  0  1  0  0  0  0  0  0  0  0
   -1.4384    2.1163    0.4458 H   0  0  0  1  0  0  0  0  0  0  0  0
   -0.3705    2.8997    1.5860 H   0  0  0  1  0  0  0  0  0  0  0  0
  1  4  1  0  0  0  0
  2  4  1  0  0  0  0
  2  5  2  0  0  0  0
  2  6  1  0  0  0  0
  3  4  1  0  0  0  0
  3  7  1  0  0  0  0
  3  8  1  0  0  0  0
  4 26  1  0  0  0  0
  6  9  1  0  0  0  0
  6 12  1  0  0  0  0
  8 10  1  0  0  0  0
  8 11  2  0  0  0  0
  9 13  1  0  0  0  0
  9 14  1  0  0  0  0
  9 15  1  0  0  0  0
 10 16  1  0  0  0  0
 10 17  1  0  0  0  0
 10 18  1  0  0  0  0
 19 20  1  0  0  0  0
 20 21  4  0  0  0  0
 20 25  4  0  0  0  0
 21 22  4  0  0  0  0
 21 27  1  0  0  0  0
 22 23  4  0  0  0  0
 22 28  1  0  0  0  0
 23 24  4  0  0  0  0
 23 26  1  0  0  0  0
 24 25  4  0  0  0  0
 24 29  1  0  0  0  0
 25 30  1  0  0  0  0
 26 31  1  0  0  0  0
 26 32  1  0  0  0  0
M  END
> <BCLConfClusterSize>
1

> <ConfClashScore>
0 

> <ConfOneFourInteractionScore>
-0.990503 

> <ConfScore>
0.0136627 

> <ConfScorePBest>
0.00450159 

> <ConfTolerance>
0.312712 

> <RosettaParamsInstructions>
M  ROOT 3
M  POLY_N_BB 3
M  POLY_CA_BB 4
M  POLY_C_BB 2
M  POLY_O_BB 5
M  POLY_IGNORE 9 10 11 12 13 14 15 16 17 18 
M  POLY_UPPER 6
M  POLY_LOWER 8
M  POLY_CHG 0
M  POLY_PROPERTIES ALPHA_AA L_AA PROTEIN AROMATIC POLYMER 
M  END

$$$$



 32 32  0  0  0  0  0  0  0  0999 V2000
   -2.8357    2.1295    2.7928 H   0  0  0  1  0  0  0  0  0  0  0  0
   -3.3808    1.2397    0.9472 C   0  0  0  1  0  0  0  0  0  0  0  0
   -1.6212    0.4885    2.3986 N   0  0  0  1  0  0  0  0  0  0  0  0
   -2.3398    1.6790    1.9584 C   0  0  0  1  0  0  0  0  0  0  0  0
   -4.4761    1.7911    0.8795 O   0  0  0  1  0  0  0  0  0  0  0  0
   -3.0252    0.2279    0.1504 N   0  0  0  1  0  0  0  0  0  0  0  0
   -0.8149    0.2000    1.9221 H   0  0  0  1  0  0  0  0  0  0  0  0
   -2.0642   -0.2164    3.4602 C   0  0  0  1  0  0  0  0  0  0  0  0
   -3.9187   -0.3158   -0.8615 C   0  0  0  1  0  0  0  0  0  0  0  0
   -1.1603   -1.3770    3.8799 C   0  0  0  1  0  0  0  0  0  0  0  0
   -3.0650    0.0671    4.1173 O   0  0  0  1  0  0  0  0  0  0  0  0
   -2.1316   -0.1617    0.2509 H   0  0  0  1  0  0  0  0  0  0  0  0
   -4.8249   -0.6456   -0.3978 H   0  0  0  1  0  0  0  0  0  0  0  0
   -3.4454   -1.1433   -1.3475 H   0  0  0  1  0  0  0  0  0  0  0  0
   -4.1428    0.4417   -1.5832 H   0  0  0  1  0  0  0  0  0  0  0  0
   -0.1355   -1.0872    3.7760 H   0  0  0  1  0  0  0  0  0  0  0  0
   -1.3559   -2.2245    3.2567 H   0  0  0  1  0  0  0  0  0  0  0  0
   -1.3571   -1.6311    4.9004 H   0  0  0  1  0  0  0  0  0  0  0  0
   -4.3790    8.2629    0.4232 I   0  0  0  1  0  0  0  0  0  0  0  0
   -3.4231    6.4223    0.6814 C   0  0  0  1  0  0  0  0  0  0  0  0
   -2.5710    6.2797    1.7654 C   0  0  0  1  0  0  0  0  0  0  0  0
   -1.9124    5.0827    1.9742 C   0  0  0  1  0  0  0  0  0  0  0  0
   -2.1081    4.0229    1.1024 C   0  0  0  1  0  0  0  0  0  0  0  0
   -2.9577    4.1649    0.0214 C   0  0  0  1  0  0  0  0  0  0  0  0
   -3.6181    5.3656   -0.1878 C   0  0  0  1  0  0  0  0  0  0  0  0
   -1.3932    2.7125    1.3331 C   0  0  0  1  0  0  0  0  0  0  0  0
   -2.4273    7.0735    2.4218 H   0  0  0  1  0  0  0  0  0  0  0  0
   -1.2701    4.9771    2.7853 H   0  0  0  1  0  0  0  0  0  0  0  0
   -3.1013    3.3710   -0.6349 H   0  0  0  1  0  0  0  0  0  0  0  0
   -4.2605    5.4712   -0.9989 H   0  0  0  1  0  0  0  0  0  0  0  0
   -1.0349    2.3388    0.3968 H   0  0  0  1  0  0  0  0  0  0  0  0
   -0.5665    2.8753    1.9927 H   0  0  0  1  0  0  0  0  0  0  0  0
  1  4  1  0  0  0  0
  2  4  1  0  0  0  0
  2  5  2  0  0  0  0
  2  6  1  0  0  0  0
  3  4  1  0  0  0  0
  3  7  1  0  0  0  0
  3  8  1  0  0  0  0
  4 26  1  0  0  0  0
  6  9  1  0  0  0  0
  6 12  1  0  0  0  0
  8 10  1  0  0  0  0
  8 11  2  0  0  0  0
  9 13  1  0  0  0  0
  9 14  1  0  0  0  0
  9 15  1  0  0  0  0
 10 16  1  0  0  0  0
 10 17  1  0  0  0  0
 10 18  1  0  0  0  0
 19 20  1  0  0  0  0
 20 21  4  0  0  0  0
 20 25  4  0  0  0  0
 21 22  4  0  0  0  0
 21 27  1  0  0  0  0
 22 23  4  0  0  0  0
 22 28  1  0  0  0  0
 23 24  4  0  0  0  0
 23 26  1  0  0  0  0
 24 25  4  0  0  0  0
 24 29  1  0  0  0  0
 25 30  1  0  0  0  0
 26 31  1  0  0  0  0
 26 32  1  0  0  0  0
M  END
> <BCLConfClusterSize>
1

> <ConfClashScore>
0 

> <ConfOneFourInteractionScore>
-0.960318 

> <ConfScore>
0.0165235 

> <ConfScorePBest>
0.00447311 

> <ConfTolerance>
0.375325 

> <RosettaParamsInstructions>
M  ROOT 3
M  POLY_N_BB 3
M  POLY_CA_BB 4
M  POLY_C_BB 2
M  POLY_O_BB 5
M  POLY_IGNORE 9 10 11 12 13 14 15 16 17 18 
M  POLY_UPPER 6
M  POLY_LOWER 8
M  POLY_CHG 0
M  POLY_PROPERTIES ALPHA_AA L_AA PROTEIN AROMATIC POLYMER 
M  END

$$$$



 32 32  0  0  0  0  0  0  0  0999 V2000
    0.4621    1.7210    1.0813 H   0  0  0  1  0  0  0  0  0  0  0  0
    0.2645    3.1313   -0.4799 C   0  0  0  1  0  0  0  0  0  0  0  0
    0.8649    3.6026    1.8370 N   0  0  0  1  0  0  0  0  0  0  0  0
    0.0948    2.7202    0.9732 C   0  0  0  1  0  0  0  0  0  0  0  0
   -0.1176    2.4005   -1.3900 O   0  0  0  1  0  0  0  0  0  0  0  0
    0.8432    4.3141   -0.7373 N   0  0  0  1  0  0  0  0  0  0  0  0
    0.4294    4.3679    2.2673 H   0  0  0  1  0  0  0  0  0  0  0  0
    2.1772    3.3695    2.0466 C   0  0  0  1  0  0  0  0  0  0  0  0
    0.9641    4.7303   -2.1266 C   0  0  0  1  0  0  0  0  0  0  0  0
    2.9264    4.3006    2.9798 C   0  0  0  1  0  0  0  0  0  0  0  0
    2.7512    2.4297    1.4981 O   0  0  0  1  0  0  0  0  0  0  0  0
    1.1749    4.8817   -0.0105 H   0  0  0  1  0  0  0  0  0  0  0  0
    1.7314    4.1584   -2.6052 H   0  0  0  1  0  0  0  0  0  0  0  0
    1.2165    5.7694   -2.1667 H   0  0  0  1  0  0  0  0  0  0  0  0
    0.0334    4.5692   -2.6292 H   0  0  0  1  0  0  0  0  0  0  0  0
    2.4750    4.2737    3.9495 H   0  0  0  1  0  0  0  0  0  0  0  0
    2.8863    5.2984    2.5955 H   0  0  0  1  0  0  0  0  0  0  0  0
    3.9468    3.9868    3.0528 H   0  0  0  1  0  0  0  0  0  0  0  0
   -4.4007    8.2454    0.3836 I   0  0  0  1  0  0  0  0  0  0  0  0
   -3.4178    6.4267    0.6912 C   0  0  0  1  0  0  0  0  0  0  0  0
   -2.5636    6.2739    1.7722 C   0  0  0  1  0  0  0  0  0  0  0  0
   -1.9097    5.0728    1.9721 C   0  0  0  1  0  0  0  0  0  0  0  0
   -2.1123    4.0191    1.0945 C   0  0  0  1  0  0  0  0  0  0  0  0
   -2.9639    4.1713    0.0166 C   0  0  0  1  0  0  0  0  0  0  0  0
   -3.6196    5.3760   -0.1838 C   0  0  0  1  0  0  0  0  0  0  0  0
   -1.3776    2.7270    1.3628 C   0  0  0  1  0  0  0  0  0  0  0  0
   -2.4148    7.0632    2.4329 H   0  0  0  1  0  0  0  0  0  0  0  0
   -1.2658    4.9596    2.7809 H   0  0  0  1  0  0  0  0  0  0  0  0
   -3.1127    3.3820   -0.6441 H   0  0  0  1  0  0  0  0  0  0  0  0
   -4.2635    5.4893   -0.9926 H   0  0  0  1  0  0  0  0  0  0  0  0
   -1.4426    2.5218    2.4109 H   0  0  0  1  0  0  0  0  0  0  0  0
   -1.8674    1.9490    0.8154 H   0  0  0  1  0  0  0  0  0  0  0  0
  1  4  1  0  0  0  0
  2  4  1  0  0  0  0
  2  5  2  0  0  0  0
  2  6  1  0  0  0  0
  3  4  1  0  0  0  0
  3  7  1  0  0  0  0
  3  8  1  0  0  0  0
  4 26  1  0  0  0  0
  6  9  1  0  0  0  0
  6 12  1  0  0  0  0
  8 10  1  0  0  0  0
  8 11  2  0  0  0  0
  9 13  1  0  0  0  0
  9 14  1  0  0  0  0
  9 15  1  0  0  0  0
 10 16  1  0  0  0  0
 10 17  1  0  0  0  0
 10 18  1  0  0  0  0
 19 20  1  0  0  0  0
 20 21  4  0  0  0  0
 20 25  4  0  0  0  0
 21 22  4  0  0  0  0
 21 27  1  0  0  0  0
 22 23  4  0  0  0  0
 22 28  1  0  0  0  0
 23 24  4  0  0  0  0
 23 26  1  0  0  0  0
 24 25  4  0  0  0  0
 24 29  1  0  0  0  0
 25 30  1  0  0  0  0
 26 31  1  0  0  0  0
 26 32  1  0  0  0  0
M  END
> <BCLConfClusterSize>
1

> <ConfClashScore>
0 

> <ConfOneFourInteractionScore>
-0.957074 

> <ConfScore>
0.0275943 

> <ConfScorePBest>
0.00444463 

> <ConfTolerance>
0.354253 

> <RosettaParamsInstructions>
M  ROOT 3
M  POLY_N_BB 3
M  POLY_CA_BB 4
M  POLY_C_BB 2
M  POLY_O_BB 5
M  POLY_IGNORE 9 10 11 12 13 14 15 16 17 18 
M  POLY_UPPER 6
M  POLY_LOWER 8
M  POLY_CHG 0
M  POLY_PROPERTIES ALPHA_AA L_AA PROTEIN AROMATIC POLYMER 
M  END

$$$$



 32 32  0  0  0  0  0  0  0  0999 V2000
   -0.9916    2.4130   -0.7376 H   0  0  0  1  0  0  0  0  0  0  0  0
    0.7117    3.2993    0.1590 C   0  0  0  1  0  0  0  0  0  0  0  0
    0.0138    0.9635    0.3568 N   0  0  0  1  0  0  0  0  0  0  0  0
   -0.4545    2.3306    0.1842 C   0  0  0  1  0  0  0  0  0  0  0  0
    1.3231    3.5893    1.1865 O   0  0  0  1  0  0  0  0  0  0  0  0
    1.0219    3.8075   -1.0442 N   0  0  0  1  0  0  0  0  0  0  0  0
   -0.1657    0.4873    1.1943 H   0  0  0  1  0  0  0  0  0  0  0  0
    0.6946    0.3505   -0.6336 C   0  0  0  1  0  0  0  0  0  0  0  0
    2.1358    4.7340   -1.1810 C   0  0  0  1  0  0  0  0  0  0  0  0
    1.2416   -1.0095   -0.2460 C   0  0  0  1  0  0  0  0  0  0  0  0
    0.8734    0.8215   -1.7561 O   0  0  0  1  0  0  0  0  0  0  0  0
    0.4972    3.5540   -1.8321 H   0  0  0  1  0  0  0  0  0  0  0  0
    2.8510    4.5494   -0.4068 H   0  0  0  1  0  0  0  0  0  0  0  0
    1.7758    5.7384   -1.1016 H   0  0  0  1  0  0  0  0  0  0  0  0
    2.5997    4.5952   -2.1352 H   0  0  0  1  0  0  0  0  0  0  0  0
    1.8754   -0.9088    0.6102 H   0  0  0  1  0  0  0  0  0  0  0  0
    1.8053   -1.4125   -1.0613 H   0  0  0  1  0  0  0  0  0  0  0  0
    0.4301   -1.6670   -0.0134 H   0  0  0  1  0  0  0  0  0  0  0  0
   -4.3790    8.2629    0.4232 I   0  0  0  1  0  0  0  0  0  0  0  0
   -3.4231    6.4223    0.6814 C   0  0  0  1  0  0  0  0  0  0  0  0
   -2.5710    6.2797    1.7654 C   0  0  0  1  0  0  0  0  0  0  0  0
   -1.9124    5.0827    1.9742 C   0  0  0  1  0  0  0  0  0  0  0  0
   -2.1081    4.0229    1.1024 C   0  0  0  1  0  0  0  0  0  0  0  0
   -2.9577    4.1649    0.0214 C   0  0  0  1  0  0  0  0  0  0  0  0
   -3.6181    5.3656   -0.1878 C   0  0  0  1  0  0  0  0  0  0  0  0
   -1.3932    2.7125    1.3331 C   0  0  0  1  0  0  0  0  0  0  0  0
   -2.4273    7.0735    2.4218 H   0  0  0  1  0  0  0  0  0  0  0  0
   -1.2701    4.9771    2.7853 H   0  0  0  1  0  0  0  0  0  0  0  0
   -3.1013    3.3710   -0.6349 H   0  0  0  1  0  0  0  0  0  0  0  0
   -4.2605    5.4712   -0.9989 H   0  0  0  1  0  0  0  0  0  0  0  0
   -0.8172    2.7924    2.2313 H   0  0  0  1  0  0  0  0  0  0  0  0
   -2.1253    1.9404    1.4458 H   0  0  0  1  0  0  0  0  0  0  0  0
  1  4  1  0  0  0  0
  2  4  1  0  0  0  0
  2  5  2  0  0  0  0
  2  6  1  0  0  0  0
  3  4  1  0  0  0  0
  3  7  1  0  0  0  0
  3  8  1  0  0  0  0
  4 26  1  0  0  0  0
  6  9  1  0  0  0  0
  6 12  1  0  0  0  0
  8 10  1  0  0  0  0
  8 11  2  0  0  0  0
  9 13  1  0  0  0  0
  9 14  1  0  0  0  0
  9 15  1  0  0  0  0
 10 16  1  0  0  0  0
 10 17  1  0  0  0  0
 10 18  1  0  0  0  0
 19 20  1  0  0  0  0
 20 21  4  0  0  0  0
 20 25  4  0  0  0  0
 21 22  4  0  0  0  0
 21 27  1  0  0  0  0
 22 23  4  0  0  0  0
 22 28  1  0  0  0  0
 23 24  4  0  0  0  0
 23 26  1  0  0  0  0
 24 25  4  0  0  0  0
 24 29  1  0  0  0  0
 25 30  1  0  0  0  0
 26 31  1  0  0  0  0
 26 32  1  0  0  0  0
M  END
> <BCLConfClusterSize>
1

> <ConfClashScore>
0 

> <ConfOneFourInteractionScore>
-0.971454 

> <ConfScore>
0.0278316 

> <ConfScorePBest>
0.00441614 

> <ConfTolerance>
0.301132 

> <RosettaParamsInstructions>
M  ROOT 3
M  POLY_N_BB 3
M  POLY_CA_BB 4
M  POLY_C_BB 2
M  POLY_O_BB 5
M  POLY_IGNORE 9 10 11 12 13 14 15 16 17 18 
M  POLY_UPPER 6
M  POLY_LOWER 8
M  POLY_CHG 0
M  POLY_PROPERTIES ALPHA_AA L_AA PROTEIN AROMATIC POLYMER 
M  END

$$$$



 32 32  0  0  0  0  0  0  0  0999 V2000
   -0.1068    3.3924    2.7867 H   0  0  0  1  0  0  0  0  0  0  0  0
    0.4641    1.4223    2.2869 C   0  0  0  1  0  0  0  0  0  0  0  0
    0.9083    3.4905    0.9969 N   0  0  0  1  0  0  0  0  0  0  0  0
   -0.0209    2.8148    1.8901 C   0  0  0  1  0  0  0  0  0  0  0  0
    0.6439    0.5391    1.4494 O   0  0  0  1  0  0  0  0  0  0  0  0
    0.6648    1.2765    3.6062 N   0  0  0  1  0  0  0  0  0  0  0  0
    1.1768    3.0433    0.1673 H   0  0  0  1  0  0  0  0  0  0  0  0
    1.4080    4.6995    1.2687 C   0  0  0  1  0  0  0  0  0  0  0  0
    1.2856    0.0877    4.1714 C   0  0  0  1  0  0  0  0  0  0  0  0
    2.4488    5.2162    0.2945 C   0  0  0  1  0  0  0  0  0  0  0  0
    1.0583    5.3655    2.2422 O   0  0  0  1  0  0  0  0  0  0  0  0
    0.3836    1.9956    4.2097 H   0  0  0  1  0  0  0  0  0  0  0  0
    2.0745   -0.2431    3.5287 H   0  0  0  1  0  0  0  0  0  0  0  0
    0.5532   -0.6868    4.2644 H   0  0  0  1  0  0  0  0  0  0  0  0
    1.6854    0.3190    5.1366 H   0  0  0  1  0  0  0  0  0  0  0  0
    3.4009    4.7878    0.5285 H   0  0  0  1  0  0  0  0  0  0  0  0
    2.5093    6.2819    0.3696 H   0  0  0  1  0  0  0  0  0  0  0  0
    2.1705    4.9436   -0.7021 H   0  0  0  1  0  0  0  0  0  0  0  0
   -4.4059    8.2409    0.3740 I   0  0  0  1  0  0  0  0  0  0  0  0
   -3.4171    6.4273    0.6924 C   0  0  0  1  0  0  0  0  0  0  0  0
   -2.5646    6.2828    1.7759 C   0  0  0  1  0  0  0  0  0  0  0  0
   -1.9069    5.0850    1.9830 C   0  0  0  1  0  0  0  0  0  0  0  0
   -2.1039    4.0264    1.1101 C   0  0  0  1  0  0  0  0  0  0  0  0
   -2.9538    4.1702    0.0297 C   0  0  0  1  0  0  0  0  0  0  0  0
   -3.6134    5.3716   -0.1778 C   0  0  0  1  0  0  0  0  0  0  0  0
   -1.4177    2.6926    1.2883 C   0  0  0  1  0  0  0  0  0  0  0  0
   -2.4200    7.0758    2.4331 H   0  0  0  1  0  0  0  0  0  0  0  0
   -1.2643    4.9780    2.7937 H   0  0  0  1  0  0  0  0  0  0  0  0
   -3.0984    3.3772   -0.6274 H   0  0  0  1  0  0  0  0  0  0  0  0
   -4.2560    5.4787   -0.9885 H   0  0  0  1  0  0  0  0  0  0  0  0
   -2.0156    2.0858    1.9357 H   0  0  0  1  0  0  0  0  0  0  0  0
   -1.3362    2.2210    0.3313 H   0  0  0  1  0  0  0  0  0  0  0  0
  1  4  1  0  0  0  0
  2  4  1  0  0  0  0
  2  5  2  0  0  0  0
  2  6  1  0  0  0  0
  3  4  1  0  0  0  0
  3  7  1  0  0  0  0
  3  8  1  0  0  0  0
  4 26  1  0  0  0  0
  6  9  1  0  0  0  0
  6 12  1  0  0  0  0
  8 10  1  0  0  0  0
  8 11  2  0  0  0  0
  9 13  1  0  0  0  0
  9 14  1  0  0  0  0
  9 15  1  0  0  0  0
 10 16  1  0  0  0  0
 10 17  1  0  0  0  0
 10 18  1  0  0  0  0
 19 20  1  0  0  0  0
 20 21  4  0  0  0  0
 20 25  4  0  0  0  0
 21 22  4  0  0  0  0
 21 27  1  0  0  0  0
 22 23  4  0  0  0  0
 22 28  1  0  0  0  0
 23 24  4  0  0  0  0
 23 26  1  0  0  0  0
 24 25  4  0  0  0  0
 24 29  1  0  0  0  0
 25 30  1  0  0  0  0
 26 31  1  0  0  0  0
 26 32  1  0  0  0  0
M  END
> <BCLConfClusterSize>
1

> <ConfClashScore>
0 

> <ConfOneFourInteractionScore>
-0.968709 

> <ConfScore>
0.0282641 

> <ConfScorePBest>
0.00438766 

> <ConfTolerance>
0.350837 

> <RosettaParamsInstructions>
M  ROOT 3
M  POLY_N_BB 3
M  POLY_CA_BB 4
M  POLY_C_BB 2
M  POLY_O_BB 5
M  POLY_IGNORE 9 10 11 12 13 14 15 16 17 18 
M  POLY_UPPER 6
M  POLY_LOWER 8
M  POLY_CHG 0
M  POLY_PROPERTIES ALPHA_AA L_AA PROTEIN AROMATIC POLYMER 
M  END

$$$$



 32 32  0  0  0  0  0  0  0  0999 V2000
   -1.3304    2.0013   -0.5892 H   0  0  0  1  0  0  0  0  0  0  0  0
    0.3867    3.1554   -0.2773 C   0  0  0  1  0  0  0  0  0  0  0  0
   -0.0783    0.8396    0.5290 N   0  0  0  1  0  0  0  0  0  0  0  0
   -0.6413    2.1435    0.2168 C   0  0  0  1  0  0  0  0  0  0  0  0
    1.3957    3.4125    0.3781 O   0  0  0  1  0  0  0  0  0  0  0  0
    0.1147    3.7342   -1.4576 N   0  0  0  1  0  0  0  0  0  0  0  0
   -0.2506    0.4490    1.4111 H   0  0  0  1  0  0  0  0  0  0  0  0
    0.6690    0.1528   -0.3486 C   0  0  0  1  0  0  0  0  0  0  0  0
    0.9148    4.8313   -1.9902 C   0  0  0  1  0  0  0  0  0  0  0  0
    1.2975   -1.1537    0.1522 C   0  0  0  1  0  0  0  0  0  0  0  0
    0.7982    0.4827   -1.5246 O   0  0  0  1  0  0  0  0  0  0  0  0
   -0.6479    3.4081   -1.9796 H   0  0  0  1  0  0  0  0  0  0  0  0
    1.5001    5.2608   -1.2042 H   0  0  0  1  0  0  0  0  0  0  0  0
    0.2675    5.5777   -2.4011 H   0  0  0  1  0  0  0  0  0  0  0  0
    1.5636    4.4604   -2.7559 H   0  0  0  1  0  0  0  0  0  0  0  0
    1.9061   -0.9519    1.0088 H   0  0  0  1  0  0  0  0  0  0  0  0
    1.9016   -1.5783   -0.6221 H   0  0  0  1  0  0  0  0  0  0  0  0
    0.5233   -1.8422    0.4193 H   0  0  0  1  0  0  0  0  0  0  0  0
   -4.4649    8.2178    0.4506 I   0  0  0  1  0  0  0  0  0  0  0  0
   -3.3997    6.4335    0.6731 C   0  0  0  1  0  0  0  0  0  0  0  0
   -2.5492    6.2852    1.7576 C   0  0  0  1  0  0  0  0  0  0  0  0
   -1.8983    5.0840    1.9664 C   0  0  0  1  0  0  0  0  0  0  0  0
   -2.1001    4.0258    1.0941 C   0  0  0  1  0  0  0  0  0  0  0  0
   -2.9480    4.1734    0.0127 C   0  0  0  1  0  0  0  0  0  0  0  0
   -3.6008    5.3783   -0.1966 C   0  0  0  1  0  0  0  0  0  0  0  0
   -1.4647    2.6874    1.3884 C   0  0  0  1  0  0  0  0  0  0  0  0
   -2.4009    7.0779    2.4143 H   0  0  0  1  0  0  0  0  0  0  0  0
   -1.2571    4.9741    2.7778 H   0  0  0  1  0  0  0  0  0  0  0  0
   -3.0963    3.3807   -0.6440 H   0  0  0  1  0  0  0  0  0  0  0  0
   -4.2420    5.4882   -1.0080 H   0  0  0  1  0  0  0  0  0  0  0  0
   -0.8209    2.7951    2.2362 H   0  0  0  1  0  0  0  0  0  0  0  0
   -2.2395    1.9851    1.6152 H   0  0  0  1  0  0  0  0  0  0  0  0
  1  4  1  0  0  0  0
  2  4  1  0  0  0  0
  2  5  2  0  0  0  0
  2  6  1  0  0  0  0
  3  4  1  0  0  0  0
  3  7  1  0  0  0  0
  3  8  1  0  0  0  0
  4 26  1  0  0  0  0
  6  9  1  0  0  0  0
  6 12  1  0  0  0  0
  8 10  1  0  0  0  0
  8 11  2  0  0  0  0
  9 13  1  0  0  0  0
  9 14  1  0  0  0  0
  9 15  1  0  0  0  0
 10 16  1  0  0  0  0
 10 17  1  0  0  0  0
 10 18  1  0  0  0  0
 19 20  1  0  0  0  0
 20 21  4  0  0  0  0
 20 25  4  0  0  0  0
 21 22  4  0  0  0  0
 21 27  1  0  0  0  0
 22 23  4  0  0  0  0
 22 28  1  0  0  0  0
 23 24  4  0  0  0  0
 23 26  1  0  0  0  0
 24 25  4  0  0  0  0
 24 29  1  0  0  0  0
 25 30  1  0  0  0  0
 26 31  1  0  0  0  0
 26 32  1  0  0  0  0
M  END
> <BCLConfClusterSize>
1

> <ConfClashScore>
0 

> <ConfOneFourInteractionScore>
-0.985807 

> <ConfScore>
0.0287441 

> <ConfScorePBest>
0.00435918 

> <ConfTolerance>
0.30897 

> <RosettaParamsInstructions>
M  ROOT 3
M  POLY_N_BB 3
M  POLY_CA_BB 4
M  POLY_C_BB 2
M  POLY_O_BB 5
M  POLY_IGNORE 9 10 11 12 13 14 15 16 17 18 
M  POLY_UPPER 6
M  POLY_LOWER 8
M  POLY_CHG 0
M  POLY_PROPERTIES ALPHA_AA L_AA PROTEIN AROMATIC POLYMER 
M  END

$$$$



 32 32  0  0  0  0  0  0  0  0999 V2000
   -3.1632    2.1073    2.3021 H   0  0  0  1  0  0  0  0  0  0  0  0
   -2.1432    0.3514    1.7548 C   0  0  0  1  0  0  0  0  0  0  0  0
   -1.5948    1.8888    3.6192 N   0  0  0  1  0  0  0  0  0  0  0  0
   -2.1450    1.7796    2.2728 C   0  0  0  1  0  0  0  0  0  0  0  0
   -2.9329   -0.0132    0.8847 O   0  0  0  1  0  0  0  0  0  0  0  0
   -1.2338   -0.4678    2.3061 N   0  0  0  1  0  0  0  0  0  0  0  0
   -0.7435    2.3628    3.7238 H   0  0  0  1  0  0  0  0  0  0  0  0
   -2.1669    1.3890    4.7261 C   0  0  0  1  0  0  0  0  0  0  0  0
   -1.0807   -1.8533    1.8879 C   0  0  0  1  0  0  0  0  0  0  0  0
   -1.3641    1.5319    6.0045 C   0  0  0  1  0  0  0  0  0  0  0  0
   -3.2710    0.8462    4.7228 O   0  0  0  1  0  0  0  0  0  0  0  0
   -0.6528   -0.1208    3.0149 H   0  0  0  1  0  0  0  0  0  0  0  0
   -0.2904   -2.3098    2.4464 H   0  0  0  1  0  0  0  0  0  0  0  0
   -0.8453   -1.8867    0.8447 H   0  0  0  1  0  0  0  0  0  0  0  0
   -1.9939   -2.3821    2.0651 H   0  0  0  1  0  0  0  0  0  0  0  0
   -0.3919    1.9154    5.7747 H   0  0  0  1  0  0  0  0  0  0  0  0
   -1.2681    0.5752    6.4739 H   0  0  0  1  0  0  0  0  0  0  0  0
   -1.8657    2.2061    6.6669 H   0  0  0  1  0  0  0  0  0  0  0  0
   -4.4032    8.2433    0.3789 I   0  0  0  1  0  0  0  0  0  0  0  0
   -3.4175    6.4271    0.6918 C   0  0  0  1  0  0  0  0  0  0  0  0
   -2.5641    6.2783    1.7740 C   0  0  0  1  0  0  0  0  0  0  0  0
   -1.9084    5.0788    1.9774 C   0  0  0  1  0  0  0  0  0  0  0  0
   -2.1083    4.0227    1.1021 C   0  0  0  1  0  0  0  0  0  0  0  0
   -2.9591    4.1708    0.0229 C   0  0  0  1  0  0  0  0  0  0  0  0
   -3.6167    5.3740   -0.1809 C   0  0  0  1  0  0  0  0  0  0  0  0
   -1.3965    2.7096    1.3270 C   0  0  0  1  0  0  0  0  0  0  0  0
   -2.4173    7.0693    2.4330 H   0  0  0  1  0  0  0  0  0  0  0  0
   -1.2651    4.9685    2.7871 H   0  0  0  1  0  0  0  0  0  0  0  0
   -3.1058    3.3797   -0.6360 H   0  0  0  1  0  0  0  0  0  0  0  0
   -4.2600    5.4843   -0.9906 H   0  0  0  1  0  0  0  0  0  0  0  0
   -1.2839    2.2173    0.3837 H   0  0  0  1  0  0  0  0  0  0  0  0
   -0.4311    2.9121    1.7417 H   0  0  0  1  0  0  0  0  0  0  0  0
  1  4  1  0  0  0  0
  2  4  1  0  0  0  0
  2  5  2  0  0  0  0
  2  6  1  0  0  0  0
  3  4  1  0  0  0  0
  3  7  1  0  0  0  0
  3  8  1  0  0  0  0
  4 26  1  0  0  0  0
  6  9  1  0  0  0  0
  6 12  1  0  0  0  0
  8 10  1  0  0  0  0
  8 11  2  0  0  0  0
  9 13  1  0  0  0  0
  9 14  1  0  0  0  0
  9 15  1  0  0  0  0
 10 16  1  0  0  0  0
 10 17  1  0  0  0  0
 10 18  1  0  0  0  0
 19 20  1  0  0  0  0
 20 21  4  0  0  0  0
 20 25  4  0  0  0  0
 21 22  4  0  0  0  0
 21 27  1  0  0  0  0
 22 23  4  0  0  0  0
 22 28  1  0  0  0  0
 23 24  4  0  0  0  0
 23 26  1  0  0  0  0
 24 25  4  0  0  0  0
 24 29  1  0  0  0  0
 25 30  1  0  0  0  0
 26 31  1  0  0  0  0
 26 32  1  0  0  0  0
M  END
> <BCLConfClusterSize>
1

> <ConfClashScore>
0 

> <ConfOneFourInteractionScore>
-0.948834 

> <ConfScore>
0.032308 

> <ConfScorePBest>
0.0043307 

> <ConfTolerance>
0.462386 

> <RosettaParamsInstructions>
M  ROOT 3
M  POLY_N_BB 3
M  POLY_CA_BB 4
M  POLY_C_BB 2
M  POLY_O_BB 5
M  POLY_IGNORE 9 10 11 12 13 14 15 16 17 18 
M  POLY_UPPER 6
M  POLY_LOWER 8
M  POLY_CHG 0
M  POLY_PROPERTIES ALPHA_AA L_AA PROTEIN AROMATIC POLYMER 
M  END

$$$$



 32 32  0  0  0  0  0  0  0  0999 V2000
    0.4817    3.5783    0.8313 H   0  0  0  1  0  0  0  0  0  0  0  0
    0.7823    1.4930    1.0330 C   0  0  0  1  0  0  0  0  0  0  0  0
   -0.2694    2.6384   -0.8506 N   0  0  0  1  0  0  0  0  0  0  0  0
   -0.0552    2.6853    0.5880 C   0  0  0  1  0  0  0  0  0  0  0  0
    0.2725    0.5353    1.6085 O   0  0  0  1  0  0  0  0  0  0  0  0
    2.0874    1.5649    0.7562 N   0  0  0  1  0  0  0  0  0  0  0  0
   -0.8234    1.9209   -1.2232 H   0  0  0  1  0  0  0  0  0  0  0  0
    0.2628    3.5394   -1.6813 C   0  0  0  1  0  0  0  0  0  0  0  0
    3.1312    0.6401    1.1723 C   0  0  0  1  0  0  0  0  0  0  0  0
   -0.1258    3.4006   -3.1403 C   0  0  0  1  0  0  0  0  0  0  0  0
    1.0215    4.4317   -1.3047 O   0  0  0  1  0  0  0  0  0  0  0  0
    2.3745    2.3269    0.2109 H   0  0  0  1  0  0  0  0  0  0  0  0
    2.9799    0.3680    2.1961 H   0  0  0  1  0  0  0  0  0  0  0  0
    4.0867    1.1097    1.0658 H   0  0  0  1  0  0  0  0  0  0  0  0
    3.0943   -0.2374    0.5612 H   0  0  0  1  0  0  0  0  0  0  0  0
   -1.0053    3.9789   -3.3323 H   0  0  0  1  0  0  0  0  0  0  0  0
   -0.3203    2.3719   -3.3611 H   0  0  0  1  0  0  0  0  0  0  0  0
    0.6742    3.7531   -3.7573 H   0  0  0  1  0  0  0  0  0  0  0  0
   -4.3544    8.2804    0.4670 I   0  0  0  1  0  0  0  0  0  0  0  0
   -3.4287    6.4178    0.6712 C   0  0  0  1  0  0  0  0  0  0  0  0
   -2.5779    6.2812    1.7570 C   0  0  0  1  0  0  0  0  0  0  0  0
   -1.9165    5.0867    1.9710 C   0  0  0  1  0  0  0  0  0  0  0  0
   -2.1081    4.0233    1.1026 C   0  0  0  1  0  0  0  0  0  0  0  0
   -2.9564    4.1592    0.0199 C   0  0  0  1  0  0  0  0  0  0  0  0
   -3.6197    5.3574   -0.1946 C   0  0  0  1  0  0  0  0  0  0  0  0
   -1.3901    2.7156    1.3391 C   0  0  0  1  0  0  0  0  0  0  0  0
   -2.4373    7.0778    2.4107 H   0  0  0  1  0  0  0  0  0  0  0  0
   -1.2751    4.9856    2.7834 H   0  0  0  1  0  0  0  0  0  0  0  0
   -3.0970    3.3627   -0.6338 H   0  0  0  1  0  0  0  0  0  0  0  0
   -4.2610    5.4585   -1.0070 H   0  0  0  1  0  0  0  0  0  0  0  0
   -1.2058    2.6011    2.3869 H   0  0  0  1  0  0  0  0  0  0  0  0
   -2.0049    1.9106    0.9946 H   0  0  0  1  0  0  0  0  0  0  0  0
  1  4  1  0  0  0  0
  2  4  1  0  0  0  0
  2  5  2  0  0  0  0
  2  6  1  0  0  0  0
  3  4  1  0  0  0  0
  3  7  1  0  0  0  0
  3  8  1  0  0  0  0
  4 26  1  0  0  0  0
  6  9  1  0  0  0  0
  6 12  1  0  0  0  0
  8 10  1  0  0  0  0
  8 11  2  0  0  0  0
  9 13  1  0  0  0  0
  9 14  1  0  0  0  0
  9 15  1  0  0  0  0
 10 16  1  0  0  0  0
 10 17  1  0  0  0  0
 10 18  1  0  0  0  0
 19 20  1  0  0  0  0
 20 21  4  0  0  0  0
 20 25  4  0  0  0  0
 21 22  4  0  0  0  0
 21 27  1  0  0  0  0
 22 23  4  0  0  0  0
 22 28  1  0  0  0  0
 23 24  4  0  0  0  0
 23 26  1  0  0  0  0
 24 25  4  0  0  0  0
 24 29  1  0  0  0  0
 25 30  1  0  0  0  0
 26 31  1  0  0  0  0
 26 32  1  0  0  0  0
M  END
> <BCLConfClusterSize>
1

> <ConfClashScore>
0 

> <ConfOneFourInteractionScore>
-0.979134 

> <ConfScore>
0.0349564 

> <ConfScorePBest>
0.00430222 

> <ConfTolerance>
0.335282 

> <RosettaParamsInstructions>
M  ROOT 3
M  POLY_N_BB 3
M  POLY_CA_BB 4
M  POLY_C_BB 2
M  POLY_O_BB 5
M  POLY_IGNORE 9 10 11 12 13 14 15 16 17 18 
M  POLY_UPPER 6
M  POLY_LOWER 8
M  POLY_CHG 0
M  POLY_PROPERTIES ALPHA_AA L_AA PROTEIN AROMATIC POLYMER 
M  END

$$$$



 32 32  0  0  0  0  0  0  0  0999 V2000
   -1.4185    3.0405    3.3466 H   0  0  0  1  0  0  0  0  0  0  0  0
   -0.5048    1.1702    3.1062 C   0  0  0  1  0  0  0  0  0  0  0  0
    0.4849    3.4126    2.7185 N   0  0  0  1  0  0  0  0  0  0  0  0
   -0.7307    2.6158    2.6455 C   0  0  0  1  0  0  0  0  0  0  0  0
    0.5064    0.5656    2.7534 O   0  0  0  1  0  0  0  0  0  0  0  0
   -1.4053    0.6600    3.9600 N   0  0  0  1  0  0  0  0  0  0  0  0
    1.1659    3.3011    2.0227 H   0  0  0  1  0  0  0  0  0  0  0  0
    0.7065    4.2981    3.7095 C   0  0  0  1  0  0  0  0  0  0  0  0
   -1.3441   -0.7185    4.4225 C   0  0  0  1  0  0  0  0  0  0  0  0
    1.9648    5.1340    3.5134 C   0  0  0  1  0  0  0  0  0  0  0  0
   -0.0096    4.4422    4.6822 O   0  0  0  1  0  0  0  0  0  0  0  0
   -2.1296    1.2356    4.2833 H   0  0  0  1  0  0  0  0  0  0  0  0
   -0.3293   -0.9765    4.6429 H   0  0  0  1  0  0  0  0  0  0  0  0
   -1.7191   -1.3676    3.6590 H   0  0  0  1  0  0  0  0  0  0  0  0
   -1.9388   -0.8249    5.3056 H   0  0  0  1  0  0  0  0  0  0  0  0
    2.6790    4.5764    2.9443 H   0  0  0  1  0  0  0  0  0  0  0  0
    2.3823    5.3788    4.4677 H   0  0  0  1  0  0  0  0  0  0  0  0
    1.7169    6.0340    2.9906 H   0  0  0  1  0  0  0  0  0  0  0  0
   -4.4059    8.2409    0.3740 I   0  0  0  1  0  0  0  0  0  0  0  0
   -3.4171    6.4273    0.6924 C   0  0  0  1  0  0  0  0  0  0  0  0
   -2.5646    6.2828    1.7759 C   0  0  0  1  0  0  0  0  0  0  0  0
   -1.9069    5.0850    1.9830 C   0  0  0  1  0  0  0  0  0  0  0  0
   -2.1039    4.0264    1.1101 C   0  0  0  1  0  0  0  0  0  0  0  0
   -2.9538    4.1702    0.0297 C   0  0  0  1  0  0  0  0  0  0  0  0
   -3.6134    5.3716   -0.1778 C   0  0  0  1  0  0  0  0  0  0  0  0
   -1.4177    2.6926    1.2883 C   0  0  0  1  0  0  0  0  0  0  0  0
   -2.4200    7.0758    2.4331 H   0  0  0  1  0  0  0  0  0  0  0  0
   -1.2643    4.9780    2.7937 H   0  0  0  1  0  0  0  0  0  0  0  0
   -3.0984    3.3772   -0.6274 H   0  0  0  1  0  0  0  0  0  0  0  0
   -4.2560    5.4787   -0.9885 H   0  0  0  1  0  0  0  0  0  0  0  0
   -2.1457    1.9115    1.2189 H   0  0  0  1  0  0  0  0  0  0  0  0
   -0.6862    2.5687    0.5173 H   0  0  0  1  0  0  0  0  0  0  0  0
  1  4  1  0  0  0  0
  2  4  1  0  0  0  0
  2  5  2  0  0  0  0
  2  6  1  0  0  0  0
  3  4  1  0  0  0  0
  3  7  1  0  0  0  0
  3  8  1  0  0  0  0
  4 26  1  0  0  0  0
  6  9  1  0  0  0  0
  6 12  1  0  0  0  0
  8 10  1  0  0  0  0
  8 11  2  0  0  0  0
  9 13  1  0  0  0  0
  9 14  1  0  0  0  0
  9 15  1  0  0  0  0
 10 16  1  0  0  0  0
 10 17  1  0  0  0  0
 10 18  1  0  0  0  0
 19 20  1  0  0  0  0
 20 21  4  0  0  0  0
 20 25  4  0  0  0  0
 21 22  4  0  0  0  0
 21 27  1  0  0  0  0
 22 23  4  0  0  0  0
 22 28  1  0  0  0  0
 23 24  4  0  0  0  0
 23 26  1  0  0  0  0
 24 25  4  0  0  0  0
 24 29  1  0  0  0  0
 25 30  1  0  0  0  0
 26 31  1  0  0  0  0
 26 32  1  0  0  0  0
M  END
> <BCLConfClusterSize>
1

> <ConfClashScore>
0 

> <ConfOneFourInteractionScore>
-0.96681 

> <ConfScore>
0.0375819 

> <ConfScorePBest>
0.00427374 

> <ConfTolerance>
0.348442 

> <RosettaParamsInstructions>
M  ROOT 3
M  POLY_N_BB 3
M  POLY_CA_BB 4
M  POLY_C_BB 2
M  POLY_O_BB 5
M  POLY_IGNORE 9 10 11 12 13 14 15 16 17 18 
M  POLY_UPPER 6
M  POLY_LOWER 8
M  POLY_CHG 0
M  POLY_PROPERTIES ALPHA_AA L_AA PROTEIN AROMATIC POLYMER 
M  END

$$$$



 32 32  0  0  0  0  0  0  0  0999 V2000
   -3.0699    1.4915    1.7095 H   0  0  0  1  0  0  0  0  0  0  0  0
   -1.3724    0.5530    2.5651 C   0  0  0  1  0  0  0  0  0  0  0  0
   -2.5363    2.4418    3.4773 N   0  0  0  1  0  0  0  0  0  0  0  0
   -2.1813    1.7898    2.2256 C   0  0  0  1  0  0  0  0  0  0  0  0
   -0.1623    0.6199    2.7766 O   0  0  0  1  0  0  0  0  0  0  0  0
   -2.0610   -0.5982    2.6167 N   0  0  0  1  0  0  0  0  0  0  0  0
   -2.0667    3.2633    3.7324 H   0  0  0  1  0  0  0  0  0  0  0  0
   -3.4870    1.9559    4.2967 C   0  0  0  1  0  0  0  0  0  0  0  0
   -1.4337   -1.8642    2.9653 C   0  0  0  1  0  0  0  0  0  0  0  0
   -3.7241    2.8083    5.5281 C   0  0  0  1  0  0  0  0  0  0  0  0
   -4.1215    0.9235    4.0965 O   0  0  0  1  0  0  0  0  0  0  0  0
   -3.0194   -0.5856    2.4126 H   0  0  0  1  0  0  0  0  0  0  0  0
   -0.5089   -1.6776    3.4701 H   0  0  0  1  0  0  0  0  0  0  0  0
   -1.2463   -2.4264    2.0744 H   0  0  0  1  0  0  0  0  0  0  0  0
   -2.0847   -2.4196    3.6077 H   0  0  0  1  0  0  0  0  0  0  0  0
   -4.0631    3.7787    5.2310 H   0  0  0  1  0  0  0  0  0  0  0  0
   -2.8108    2.9026    6.0775 H   0  0  0  1  0  0  0  0  0  0  0  0
   -4.4657    2.3451    6.1448 H   0  0  0  1  0  0  0  0  0  0  0  0
   -4.3383    8.2714    0.3548 I   0  0  0  1  0  0  0  0  0  0  0  0
   -3.4422    6.4159    0.7046 C   0  0  0  1  0  0  0  0  0  0  0  0
   -2.5820    6.2725    1.7821 C   0  0  0  1  0  0  0  0  0  0  0  0
   -1.9105    5.0802    1.9766 C   0  0  0  1  0  0  0  0  0  0  0  0
   -2.1014    4.0260    1.0970 C   0  0  0  1  0  0  0  0  0  0  0  0
   -2.9590    4.1688    0.0226 C   0  0  0  1  0  0  0  0  0  0  0  0
   -3.6324    5.3647   -0.1723 C   0  0  0  1  0  0  0  0  0  0  0  0
   -1.3724    2.7207    1.3122 C   0  0  0  1  0  0  0  0  0  0  0  0
   -2.4418    7.0621    2.4443 H   0  0  0  1  0  0  0  0  0  0  0  0
   -1.2621    4.9740    2.7827 H   0  0  0  1  0  0  0  0  0  0  0  0
   -3.0991    3.3792   -0.6396 H   0  0  0  1  0  0  0  0  0  0  0  0
   -4.2808    5.4709   -0.9784 H   0  0  0  1  0  0  0  0  0  0  0  0
   -1.2234    2.2421    0.3668 H   0  0  0  1  0  0  0  0  0  0  0  0
   -0.4236    2.9194    1.7653 H   0  0  0  1  0  0  0  0  0  0  0  0
  1  4  1  0  0  0  0
  2  4  1  0  0  0  0
  2  5  2  0  0  0  0
  2  6  1  0  0  0  0
  3  4  1  0  0  0  0
  3  7  1  0  0  0  0
  3  8  1  0  0  0  0
  4 26  1  0  0  0  0
  6  9  1  0  0  0  0
  6 12  1  0  0  0  0
  8 10  1  0  0  0  0
  8 11  2  0  0  0  0
  9 13  1  0  0  0  0
  9 14  1  0  0  0  0
  9 15  1  0  0  0  0
 10 16  1  0  0  0  0
 10 17  1  0  0  0  0
 10 18  1  0  0  0  0
 19 20  1  0  0  0  0
 20 21  4  0  0  0  0
 20 25  4  0  0  0  0
 21 22  4  0  0  0  0
 21 27  1  0  0  0  0
 22 23  4  0  0  0  0
 22 28  1  0  0  0  0
 23 24  4  0  0  0  0
 23 26  1  0  0  0  0
 24 25  4  0  0  0  0
 24 29  1  0  0  0  0
 25 30  1  0  0  0  0
 26 31  1  0  0  0  0
 26 32  1  0  0  0  0
M  END
> <BCLConfClusterSize>
1

> <ConfClashScore>
0 

> <ConfOneFourInteractionScore>
-0.979134 

> <ConfScore>
0.0380999 

> <ConfScorePBest>
0.00424526 

> <ConfTolerance>
0.361345 

> <RosettaParamsInstructions>
M  ROOT 3
M  POLY_N_BB 3
M  POLY_CA_BB 4
M  POLY_C_BB 2
M  POLY_O_BB 5
M  POLY_IGNORE 9 10 11 12 13 14 15 16 17 18 
M  POLY_UPPER 6
M  POLY_LOWER 8
M  POLY_CHG 0
M  POLY_PROPERTIES ALPHA_AA L_AA PROTEIN AROMATIC POLYMER 
M  END

$$$$



 32 32  0  0  0  0  0  0  0  0999 V2000
    0.5866    3.3344    0.9105 H   0  0  0  1  0  0  0  0  0  0  0  0
    0.5785    1.2411    0.7742 C   0  0  0  1  0  0  0  0  0  0  0  0
   -0.2993    2.8415   -0.8745 N   0  0  0  1  0  0  0  0  0  0  0  0
   -0.0892    2.5889    0.5466 C   0  0  0  1  0  0  0  0  0  0  0  0
    0.1910    0.4776    1.6577 O   0  0  0  1  0  0  0  0  0  0  0  0
    1.6023    0.9517   -0.0446 N   0  0  0  1  0  0  0  0  0  0  0  0
    0.1004    3.6408   -1.2769 H   0  0  0  1  0  0  0  0  0  0  0  0
   -1.0246    2.0132   -1.6543 C   0  0  0  1  0  0  0  0  0  0  0  0
    2.3911   -0.2631    0.0964 C   0  0  0  1  0  0  0  0  0  0  0  0
   -1.2989    2.4380   -3.0838 C   0  0  0  1  0  0  0  0  0  0  0  0
   -1.4521    0.9442   -1.2206 O   0  0  0  1  0  0  0  0  0  0  0  0
    1.8262    1.5805   -0.7622 H   0  0  0  1  0  0  0  0  0  0  0  0
    1.7434   -1.0860    0.3158 H   0  0  0  1  0  0  0  0  0  0  0  0
    3.0945   -0.1408    0.8933 H   0  0  0  1  0  0  0  0  0  0  0  0
    2.9153   -0.4556   -0.8163 H   0  0  0  1  0  0  0  0  0  0  0  0
   -0.6983    3.2902   -3.3247 H   0  0  0  1  0  0  0  0  0  0  0  0
   -2.3335    2.6902   -3.1884 H   0  0  0  1  0  0  0  0  0  0  0  0
   -1.0586    1.6335   -3.7470 H   0  0  0  1  0  0  0  0  0  0  0  0
   -4.4007    8.2454    0.3836 I   0  0  0  1  0  0  0  0  0  0  0  0
   -3.4178    6.4267    0.6912 C   0  0  0  1  0  0  0  0  0  0  0  0
   -2.5636    6.2739    1.7722 C   0  0  0  1  0  0  0  0  0  0  0  0
   -1.9097    5.0728    1.9721 C   0  0  0  1  0  0  0  0  0  0  0  0
   -2.1123    4.0191    1.0945 C   0  0  0  1  0  0  0  0  0  0  0  0
   -2.9639    4.1713    0.0166 C   0  0  0  1  0  0  0  0  0  0  0  0
   -3.6196    5.3760   -0.1838 C   0  0  0  1  0  0  0  0  0  0  0  0
   -1.3776    2.7270    1.3628 C   0  0  0  1  0  0  0  0  0  0  0  0
   -2.4148    7.0632    2.4329 H   0  0  0  1  0  0  0  0  0  0  0  0
   -1.2658    4.9596    2.7809 H   0  0  0  1  0  0  0  0  0  0  0  0
   -3.1127    3.3820   -0.6441 H   0  0  0  1  0  0  0  0  0  0  0  0
   -4.2635    5.4893   -0.9926 H   0  0  0  1  0  0  0  0  0  0  0  0
   -1.1280    2.6866    2.4025 H   0  0  0  1  0  0  0  0  0  0  0  0
   -2.0245    1.9104    1.1188 H   0  0  0  1  0  0  0  0  0  0  0  0
  1  4  1  0  0  0  0
  2  4  1  0  0  0  0
  2  5  2  0  0  0  0
  2  6  1  0  0  0  0
  3  4  1  0  0  0  0
  3  7  1  0  0  0  0
  3  8  1  0  0  0  0
  4 26  1  0  0  0  0
  6  9  1  0  0  0  0
  6 12  1  0  0  0  0
  8 10  1  0  0  0  0
  8 11  2  0  0  0  0
  9 13  1  0  0  0  0
  9 14  1  0  0  0  0
  9 15  1  0  0  0  0
 10 16  1  0  0  0  0
 10 17  1  0  0  0  0
 10 18  1  0  0  0  0
 19 20  1  0  0  0  0
 20 21  4  0  0  0  0
 20 25  4  0  0  0  0
 21 22  4  0  0  0  0
 21 27  1  0  0  0  0
 22 23  4  0  0  0  0
 22 28  1  0  0  0  0
 23 24  4  0  0  0  0
 23 26  1  0  0  0  0
 24 25  4  0  0  0  0
 24 29  1  0  0  0  0
 25 30  1  0  0  0  0
 26 31  1  0  0  0  0
 26 32  1  0  0  0  0
M  END
> <BCLConfClusterSize>
1

> <ConfClashScore>
0 

> <ConfOneFourInteractionScore>
-0.976539 

> <ConfScore>
0.0399275 

> <ConfScorePBest>
0.00421678 

> <ConfTolerance>
0.206439 

> <RosettaParamsInstructions>
M  ROOT 3
M  POLY_N_BB 3
M  POLY_CA_BB 4
M  POLY_C_BB 2
M  POLY_O_BB 5
M  POLY_IGNORE 9 10 11 12 13 14 15 16 17 18 
M  POLY_UPPER 6
M  POLY_LOWER 8
M  POLY_CHG 0
M  POLY_PROPERTIES ALPHA_AA L_AA PROTEIN AROMATIC POLYMER 
M  END

$$$$



 32 32  0  0  0  0  0  0  0  0999 V2000
    0.0217    3.1265   -0.1714 H   0  0  0  1  0  0  0  0  0  0  0  0
    0.3625    1.1378    0.4608 C   0  0  0  1  0  0  0  0  0  0  0  0
   -1.5048    1.9456   -0.9200 N   0  0  0  1  0  0  0  0  0  0  0  0
   -0.5725    2.2952    0.1459 C   0  0  0  1  0  0  0  0  0  0  0  0
    1.0781    1.1500    1.4589 O   0  0  0  1  0  0  0  0  0  0  0  0
    0.3481    0.1218   -0.4154 N   0  0  0  1  0  0  0  0  0  0  0  0
   -2.3332    1.4880   -0.6654 H   0  0  0  1  0  0  0  0  0  0  0  0
   -1.3149    2.2018   -2.2152 C   0  0  0  1  0  0  0  0  0  0  0  0
    1.3096   -0.9690   -0.3567 C   0  0  0  1  0  0  0  0  0  0  0  0
   -2.3893    1.6868   -3.1530 C   0  0  0  1  0  0  0  0  0  0  0  0
   -0.3368    2.8152   -2.6403 O   0  0  0  1  0  0  0  0  0  0  0  0
   -0.3335    0.1141   -1.1195 H   0  0  0  1  0  0  0  0  0  0  0  0
    1.2519   -1.5449   -1.2567 H   0  0  0  1  0  0  0  0  0  0  0  0
    1.0873   -1.5953    0.4820 H   0  0  0  1  0  0  0  0  0  0  0  0
    2.2965   -0.5691   -0.2522 H   0  0  0  1  0  0  0  0  0  0  0  0
   -3.0768    1.0751   -2.6070 H   0  0  0  1  0  0  0  0  0  0  0  0
   -1.9362    1.1074   -3.9302 H   0  0  0  1  0  0  0  0  0  0  0  0
   -2.9131    2.5145   -3.5837 H   0  0  0  1  0  0  0  0  0  0  0  0
   -4.3764    8.2648    0.4279 I   0  0  0  1  0  0  0  0  0  0  0  0
   -3.4234    6.4220    0.6808 C   0  0  0  1  0  0  0  0  0  0  0  0
   -2.5705    6.2753    1.7637 C   0  0  0  1  0  0  0  0  0  0  0  0
   -1.9138    5.0767    1.9689 C   0  0  0  1  0  0  0  0  0  0  0  0
   -2.1121    4.0194    1.0948 C   0  0  0  1  0  0  0  0  0  0  0  0
   -2.9625    4.1653    0.0151 C   0  0  0  1  0  0  0  0  0  0  0  0
   -3.6211    5.3676   -0.1907 C   0  0  0  1  0  0  0  0  0  0  0  0
   -1.3744    2.7301    1.3689 C   0  0  0  1  0  0  0  0  0  0  0  0
   -2.4248    7.0674    2.4217 H   0  0  0  1  0  0  0  0  0  0  0  0
   -1.2708    4.9681    2.7791 H   0  0  0  1  0  0  0  0  0  0  0  0
   -3.1082    3.3733   -0.6430 H   0  0  0  1  0  0  0  0  0  0  0  0
   -4.2641    5.4762   -1.0009 H   0  0  0  1  0  0  0  0  0  0  0  0
   -0.7069    2.8761    2.1923 H   0  0  0  1  0  0  0  0  0  0  0  0
   -2.0823    1.9662    1.6141 H   0  0  0  1  0  0  0  0  0  0  0  0
  1  4  1  0  0  0  0
  2  4  1  0  0  0  0
  2  5  2  0  0  0  0
  2  6  1  0  0  0  0
  3  4  1  0  0  0  0
  3  7  1  0  0  0  0
  3  8  1  0  0  0  0
  4 26  1  0  0  0  0
  6  9  1  0  0  0  0
  6 12  1  0  0  0  0
  8 10  1  0  0  0  0
  8 11  2  0  0  0  0
  9 13  1  0  0  0  0
  9 14  1  0  0  0  0
  9 15  1  0  0  0  0
 10 16  1  0  0  0  0
 10 17  1  0  0  0  0
 10 18  1  0  0  0  0
 19 20  1  0  0  0  0
 20 21  4  0  0  0  0
 20 25  4  0  0  0  0
 21 22  4  0  0  0  0
 21 27  1  0  0  0  0
 22 23  4  0  0  0  0
 22 28  1  0  0  0  0
 23 24  4  0  0  0  0
 23 26  1  0  0  0  0
 24 25  4  0  0  0  0
 24 29  1  0  0  0  0
 25 30  1  0  0  0  0
 26 31  1  0  0  0  0
 26 32  1  0  0  0  0
M  END
> <BCLConfClusterSize>
1

> <ConfClashScore>
0 

> <ConfOneFourInteractionScore>
-0.956443 

> <ConfScore>
0.0403124 

> <ConfScorePBest>
0.0041883 

> <ConfTolerance>
0.376164 

> <RosettaParamsInstructions>
M  ROOT 3
M  POLY_N_BB 3
M  POLY_CA_BB 4
M  POLY_C_BB 2
M  POLY_O_BB 5
M  POLY_IGNORE 9 10 11 12 13 14 15 16 17 18 
M  POLY_UPPER 6
M  POLY_LOWER 8
M  POLY_CHG 0
M  POLY_PROPERTIES ALPHA_AA L_AA PROTEIN AROMATIC POLYMER 
M  END

$$$$



 32 32  0  0  0  0  0  0  0  0999 V2000
    0.5660    3.3549    1.3398 H   0  0  0  1  0  0  0  0  0  0  0  0
    0.7014    1.3195    0.8861 C   0  0  0  1  0  0  0  0  0  0  0  0
   -0.0054    3.1411   -0.6277 N   0  0  0  1  0  0  0  0  0  0  0  0
   -0.0103    2.6570    0.7691 C   0  0  0  1  0  0  0  0  0  0  0  0
    0.3552    0.4827    1.7190 O   0  0  0  1  0  0  0  0  0  0  0  0
    1.7115    1.1230    0.0341 N   0  0  0  1  0  0  0  0  0  0  0  0
    0.5601    3.9135   -0.8376 H   0  0  0  1  0  0  0  0  0  0  0  0
   -0.7406    2.5847   -1.6634 C   0  0  0  1  0  0  0  0  0  0  0  0
    2.5431   -0.0706    0.0762 C   0  0  0  1  0  0  0  0  0  0  0  0
   -0.6243    3.1746   -3.0408 C   0  0  0  1  0  0  0  0  0  0  0  0
   -1.4592    1.6322   -1.4210 O   0  0  0  1  0  0  0  0  0  0  0  0
    1.8990    1.8064   -0.6429 H   0  0  0  1  0  0  0  0  0  0  0  0
    1.9273   -0.9389   -0.0317 H   0  0  0  1  0  0  0  0  0  0  0  0
    3.0583   -0.1131    1.0130 H   0  0  0  1  0  0  0  0  0  0  0  0
    3.2552   -0.0372   -0.7218 H   0  0  0  1  0  0  0  0  0  0  0  0
   -1.0215    4.1682   -3.0385 H   0  0  0  1  0  0  0  0  0  0  0  0
   -1.1740    2.5726   -3.7339 H   0  0  0  1  0  0  0  0  0  0  0  0
    0.4053    3.2030   -3.3306 H   0  0  0  1  0  0  0  0  0  0  0  0
   -4.4651    8.2113    0.4050 I   0  0  0  1  0  0  0  0  0  0  0  0
   -3.3930    6.4382    0.6786 C   0  0  0  1  0  0  0  0  0  0  0  0
   -2.5466    6.2843    1.7656 C   0  0  0  1  0  0  0  0  0  0  0  0
   -1.9067    5.0779    1.9780 C   0  0  0  1  0  0  0  0  0  0  0  0
   -2.1155    4.0200    1.1070 C   0  0  0  1  0  0  0  0  0  0  0  0
   -2.9593    4.1732    0.0231 C   0  0  0  1  0  0  0  0  0  0  0  0
   -3.6011    5.3833   -0.1898 C   0  0  0  1  0  0  0  0  0  0  0  0
   -1.4210    2.6994    1.3418 C   0  0  0  1  0  0  0  0  0  0  0  0
   -2.3932    7.0768    2.4213 H   0  0  0  1  0  0  0  0  0  0  0  0
   -1.2686    4.9638    2.7913 H   0  0  0  1  0  0  0  0  0  0  0  0
   -3.1128    3.3807   -0.6326 H   0  0  0  1  0  0  0  0  0  0  0  0
   -4.2392    5.4974   -1.0031 H   0  0  0  1  0  0  0  0  0  0  0  0
   -1.3658    2.5264    2.3963 H   0  0  0  1  0  0  0  0  0  0  0  0
   -1.9985    1.9245    0.8825 H   0  0  0  1  0  0  0  0  0  0  0  0
  1  4  1  0  0  0  0
  2  4  1  0  0  0  0
  2  5  2  0  0  0  0
  2  6  1  0  0  0  0
  3  4  1  0  0  0  0
  3  7  1  0  0  0  0
  3  8  1  0  0  0  0
  4 26  1  0  0  0  0
  6  9  1  0  0  0  0
  6 12  1  0  0  0  0
  8 10  1  0  0  0  0
  8 11  2  0  0  0  0
  9 13  1  0  0  0  0
  9 14  1  0  0  0  0
  9 15  1  0  0  0  0
 10 16  1  0  0  0  0
 10 17  1  0  0  0  0
 10 18  1  0  0  0  0
 19 20  1  0  0  0  0
 20 21  4  0  0  0  0
 20 25  4  0  0  0  0
 21 22  4  0  0  0  0
 21 27  1  0  0  0  0
 22 23  4  0  0  0  0
 22 28  1  0  0  0  0
 23 24  4  0  0  0  0
 23 26  1  0  0  0  0
 24 25  4  0  0  0  0
 24 29  1  0  0  0  0
 25 30  1  0  0  0  0
 26 31  1  0  0  0  0
 26 32  1  0  0  0  0
M  END
> <BCLConfClusterSize>
1

> <ConfClashScore>
0 

> <ConfOneFourInteractionScore>
-0.938304 

> <ConfScore>
0.0419855 

> <ConfScorePBest>
0.00415982 

> <ConfTolerance>
0.292133 

> <RosettaParamsInstructions>
M  ROOT 3
M  POLY_N_BB 3
M  POLY_CA_BB 4
M  POLY_C_BB 2
M  POLY_O_BB 5
M  POLY_IGNORE 9 10 11 12 13 14 15 16 17 18 
M  POLY_UPPER 6
M  POLY_LOWER 8
M  POLY_CHG 0
M  POLY_PROPERTIES ALPHA_AA L_AA PROTEIN AROMATIC POLYMER 
M  END

$$$$



 32 32  0  0  0  0  0  0  0  0999 V2000
    0.1406    3.0665   -0.1861 H   0  0  0  1  0  0  0  0  0  0  0  0
    0.1871    1.0084    0.3417 C   0  0  0  1  0  0  0  0  0  0  0  0
   -1.4596    2.0670   -1.0546 N   0  0  0  1  0  0  0  0  0  0  0  0
   -0.5658    2.3043    0.0691 C   0  0  0  1  0  0  0  0  0  0  0  0
    1.3542    1.0264    0.7238 O   0  0  0  1  0  0  0  0  0  0  0  0
   -0.4624   -0.1502    0.1522 N   0  0  0  1  0  0  0  0  0  0  0  0
   -2.3056    1.5987   -0.8953 H   0  0  0  1  0  0  0  0  0  0  0  0
   -1.1669    2.4653   -2.2959 C   0  0  0  1  0  0  0  0  0  0  0  0
    0.2000   -1.4143    0.4373 C   0  0  0  1  0  0  0  0  0  0  0  0
   -2.2605    2.2478   -3.3369 C   0  0  0  1  0  0  0  0  0  0  0  0
   -0.0897    2.9768   -2.5988 O   0  0  0  1  0  0  0  0  0  0  0  0
   -1.3847   -0.1453   -0.1789 H   0  0  0  1  0  0  0  0  0  0  0  0
    0.1933   -2.0269   -0.4399 H   0  0  0  1  0  0  0  0  0  0  0  0
   -0.3172   -1.9175    1.2274 H   0  0  0  1  0  0  0  0  0  0  0  0
    1.2110   -1.2279    0.7342 H   0  0  0  1  0  0  0  0  0  0  0  0
   -3.2196    2.3285   -2.8695 H   0  0  0  1  0  0  0  0  0  0  0  0
   -2.1544    1.2739   -3.7671 H   0  0  0  1  0  0  0  0  0  0  0  0
   -2.1745    2.9885   -4.1042 H   0  0  0  1  0  0  0  0  0  0  0  0
   -4.3836    8.2519    0.3698 I   0  0  0  1  0  0  0  0  0  0  0  0
   -3.4146    6.4279    0.6892 C   0  0  0  1  0  0  0  0  0  0  0  0
   -2.5656    6.2739    1.7741 C   0  0  0  1  0  0  0  0  0  0  0  0
   -1.9210    5.0692    1.9819 C   0  0  0  1  0  0  0  0  0  0  0  0
   -2.1275    4.0131    1.1082 C   0  0  0  1  0  0  0  0  0  0  0  0
   -2.9740    4.1663    0.0264 C   0  0  0  1  0  0  0  0  0  0  0  0
   -3.6205    5.3747   -0.1819 C   0  0  0  1  0  0  0  0  0  0  0  0
   -1.3340    2.7451    1.3183 C   0  0  0  1  0  0  0  0  0  0  0  0
   -2.4138    7.0651    2.4318 H   0  0  0  1  0  0  0  0  0  0  0  0
   -1.2809    4.9551    2.7936 H   0  0  0  1  0  0  0  0  0  0  0  0
   -3.1258    3.3751   -0.6313 H   0  0  0  1  0  0  0  0  0  0  0  0
   -4.2606    5.4888   -0.9936 H   0  0  0  1  0  0  0  0  0  0  0  0
   -0.6324    2.9096    2.1092 H   0  0  0  1  0  0  0  0  0  0  0  0
   -2.0091    1.9630    1.5966 H   0  0  0  1  0  0  0  0  0  0  0  0
  1  4  1  0  0  0  0
  2  4  1  0  0  0  0
  2  5  2  0  0  0  0
  2  6  1  0  0  0  0
  3  4  1  0  0  0  0
  3  7  1  0  0  0  0
  3  8  1  0  0  0  0
  4 26  1  0  0  0  0
  6  9  1  0  0  0  0
  6 12  1  0  0  0  0
  8 10  1  0  0  0  0
  8 11  2  0  0  0  0
  9 13  1  0  0  0  0
  9 14  1  0  0  0  0
  9 15  1  0  0  0  0
 10 16  1  0  0  0  0
 10 17  1  0  0  0  0
 10 18  1  0  0  0  0
 19 20  1  0  0  0  0
 20 21  4  0  0  0  0
 20 25  4  0  0  0  0
 21 22  4  0  0  0  0
 21 27  1  0  0  0  0
 22 23  4  0  0  0  0
 22 28  1  0  0  0  0
 23 24  4  0  0  0  0
 23 26  1  0  0  0  0
 24 25  4  0  0  0  0
 24 29  1  0  0  0  0
 25 30  1  0  0  0  0
 26 31  1  0  0  0  0
 26 32  1  0  0  0  0
M  END
> <BCLConfClusterSize>
1

> <ConfClashScore>
0 

> <ConfOneFourInteractionScore>
-0.960318 

> <ConfScore>
0.0474341 

> <ConfScorePBest>
0.00413134 

> <ConfTolerance>
0.514578 

> <RosettaParamsInstructions>
M  ROOT 3
M  POLY_N_BB 3
M  POLY_CA_BB 4
M  POLY_C_BB 2
M  POLY_O_BB 5
M  POLY_IGNORE 9 10 11 12 13 14 15 16 17 18 
M  POLY_UPPER 6
M  POLY_LOWER 8
M  POLY_CHG 0
M  POLY_PROPERTIES ALPHA_AA L_AA PROTEIN AROMATIC POLYMER 
M  END

$$$$



 32 32  0  0  0  0  0  0  0  0999 V2000
    0.3556    3.6258    2.1107 H   0  0  0  1  0  0  0  0  0  0  0  0
    0.8182    1.5963    1.6883 C   0  0  0  1  0  0  0  0  0  0  0  0
    0.6322    3.3631    0.0664 N   0  0  0  1  0  0  0  0  0  0  0  0
    0.1211    2.9066    1.3540 C   0  0  0  1  0  0  0  0  0  0  0  0
    1.1706    0.8108    0.8094 O   0  0  0  1  0  0  0  0  0  0  0  0
    0.9974    1.4028    2.9959 N   0  0  0  1  0  0  0  0  0  0  0  0
    0.8390    2.6813   -0.6065 H   0  0  0  1  0  0  0  0  0  0  0  0
    0.8393    4.6387   -0.2642 C   0  0  0  1  0  0  0  0  0  0  0  0
    1.4549    0.1600    3.5991 C   0  0  0  1  0  0  0  0  0  0  0  0
    1.3691    4.8786   -1.6645 C   0  0  0  1  0  0  0  0  0  0  0  0
    0.6202    5.5740    0.5045 O   0  0  0  1  0  0  0  0  0  0  0  0
    0.8066    2.1541    3.5954 H   0  0  0  1  0  0  0  0  0  0  0  0
    1.2475   -0.6555    2.9382 H   0  0  0  1  0  0  0  0  0  0  0  0
    0.9450    0.0053    4.5270 H   0  0  0  1  0  0  0  0  0  0  0  0
    2.5088    0.2164    3.7758 H   0  0  0  1  0  0  0  0  0  0  0  0
    0.5732    4.7690   -2.3712 H   0  0  0  1  0  0  0  0  0  0  0  0
    2.1386    4.1673   -1.8811 H   0  0  0  1  0  0  0  0  0  0  0  0
    1.7695    5.8688   -1.7293 H   0  0  0  1  0  0  0  0  0  0  0  0
   -4.4282    8.2202    0.3317 I   0  0  0  1  0  0  0  0  0  0  0  0
   -3.4115    6.4323    0.7029 C   0  0  0  1  0  0  0  0  0  0  0  0
   -2.5568    6.2769    1.7831 C   0  0  0  1  0  0  0  0  0  0  0  0
   -1.9042    5.0747    1.9808 C   0  0  0  1  0  0  0  0  0  0  0  0
   -2.1085    4.0226    1.1017 C   0  0  0  1  0  0  0  0  0  0  0  0
   -2.9606    4.1774    0.0245 C   0  0  0  1  0  0  0  0  0  0  0  0
   -3.6151    5.3832   -0.1735 C   0  0  0  1  0  0  0  0  0  0  0  0
   -1.4001    2.7066    1.3203 C   0  0  0  1  0  0  0  0  0  0  0  0
   -2.4067    7.0649    2.4450 H   0  0  0  1  0  0  0  0  0  0  0  0
   -1.2599    4.9595    2.7890 H   0  0  0  1  0  0  0  0  0  0  0  0
   -3.1108    3.3893   -0.6372 H   0  0  0  1  0  0  0  0  0  0  0  0
   -4.2595    5.4985   -0.9817 H   0  0  0  1  0  0  0  0  0  0  0  0
   -1.7195    2.2867    2.2512 H   0  0  0  1  0  0  0  0  0  0  0  0
   -1.6485    2.0378    0.5229 H   0  0  0  1  0  0  0  0  0  0  0  0
  1  4  1  0  0  0  0
  2  4  1  0  0  0  0
  2  5  2  0  0  0  0
  2  6  1  0  0  0  0
  3  4  1  0  0  0  0
  3  7  1  0  0  0  0
  3  8  1  0  0  0  0
  4 26  1  0  0  0  0
  6  9  1  0  0  0  0
  6 12  1  0  0  0  0
  8 10  1  0  0  0  0
  8 11  2  0  0  0  0
  9 13  1  0  0  0  0
  9 14  1  0  0  0  0
  9 15  1  0  0  0  0
 10 16  1  0  0  0  0
 10 17  1  0  0  0  0
 10 18  1  0  0  0  0
 19 20  1  0  0  0  0
 20 21  4  0  0  0  0
 20 25  4  0  0  0  0
 21 22  4  0  0  0  0
 21 27  1  0  0  0  0
 22 23  4  0  0  0  0
 22 28  1  0  0  0  0
 23 24  4  0  0  0  0
 23 26  1  0  0  0  0
 24 25  4  0  0  0  0
 24 29  1  0  0  0  0
 25 30  1  0  0  0  0
 26 31  1  0  0  0  0
 26 32  1  0  0  0  0
M  END
> <BCLConfClusterSize>
1

> <ConfClashScore>
0 

> <ConfOneFourInteractionScore>
-0.990503 

> <ConfScore>
0.0488848 

> <ConfScorePBest>
0.00410286 

> <ConfTolerance>
0.492568 

> <RosettaParamsInstructions>
M  ROOT 3
M  POLY_N_BB 3
M  POLY_CA_BB 4
M  POLY_C_BB 2
M  POLY_O_BB 5
M  POLY_IGNORE 9 10 11 12 13 14 15 16 17 18 
M  POLY_UPPER 6
M  POLY_LOWER 8
M  POLY_CHG 0
M  POLY_PROPERTIES ALPHA_AA L_AA PROTEIN AROMATIC POLYMER 
M  END

$$$$



 32 32  0  0  0  0  0  0  0  0999 V2000
   -1.4570    0.9324    2.4475 H   0  0  0  1  0  0  0  0  0  0  0  0
   -2.0974    2.4907    3.7130 C   0  0  0  1  0  0  0  0  0  0  0  0
   -3.3717    1.4721    1.8868 N   0  0  0  1  0  0  0  0  0  0  0  0
   -2.0403    1.8248    2.3568 C   0  0  0  1  0  0  0  0  0  0  0  0
   -3.0738    3.1608    4.0463 O   0  0  0  1  0  0  0  0  0  0  0  0
   -1.0576    2.3293    4.5362 N   0  0  0  1  0  0  0  0  0  0  0  0
   -3.6472    1.7555    0.9900 H   0  0  0  1  0  0  0  0  0  0  0  0
   -4.2314    0.7752    2.6353 C   0  0  0  1  0  0  0  0  0  0  0  0
   -1.0891    2.7676    5.9236 C   0  0  0  1  0  0  0  0  0  0  0  0
   -5.5533    0.4342    1.9753 C   0  0  0  1  0  0  0  0  0  0  0  0
   -3.9861    0.4268    3.7785 O   0  0  0  1  0  0  0  0  0  0  0  0
   -0.2454    1.9008    4.1939 H   0  0  0  1  0  0  0  0  0  0  0  0
   -1.3269    3.8101    5.9635 H   0  0  0  1  0  0  0  0  0  0  0  0
   -0.1311    2.6033    6.3711 H   0  0  0  1  0  0  0  0  0  0  0  0
   -1.8322    2.2118    6.4562 H   0  0  0  1  0  0  0  0  0  0  0  0
   -6.1090    1.3323    1.8036 H   0  0  0  1  0  0  0  0  0  0  0  0
   -6.1139   -0.2151    2.6149 H   0  0  0  1  0  0  0  0  0  0  0  0
   -5.3697   -0.0553    1.0417 H   0  0  0  1  0  0  0  0  0  0  0  0
   -4.3546    8.2570    0.3230 I   0  0  0  1  0  0  0  0  0  0  0  0
   -3.4384    6.4193    0.7122 C   0  0  0  1  0  0  0  0  0  0  0  0
   -2.5773    6.2714    1.7883 C   0  0  0  1  0  0  0  0  0  0  0  0
   -1.9077    5.0775    1.9788 C   0  0  0  1  0  0  0  0  0  0  0  0
   -2.1014    4.0259    1.0967 C   0  0  0  1  0  0  0  0  0  0  0  0
   -2.9601    4.1731    0.0237 C   0  0  0  1  0  0  0  0  0  0  0  0
   -3.6316    5.3707   -0.1673 C   0  0  0  1  0  0  0  0  0  0  0  0
   -1.3745    2.7188    1.3076 C   0  0  0  1  0  0  0  0  0  0  0  0
   -2.4350    7.0590    2.4524 H   0  0  0  1  0  0  0  0  0  0  0  0
   -1.2585    4.9680    2.7840 H   0  0  0  1  0  0  0  0  0  0  0  0
   -3.1023    3.3854   -0.6404 H   0  0  0  1  0  0  0  0  0  0  0  0
   -4.2807    5.4802   -0.9724 H   0  0  0  1  0  0  0  0  0  0  0  0
   -1.3473    2.1903    0.3776 H   0  0  0  1  0  0  0  0  0  0  0  0
   -0.3756    2.9322    1.6264 H   0  0  0  1  0  0  0  0  0  0  0  0
  1  4  1  0  0  0  0
  2  4  1  0  0  0  0
  2  5  2  0  0  0  0
  2  6  1  0  0  0  0
  3  4  1  0  0  0  0
  3  7  1  0  0  0  0
  3  8  1  0  0  0  0
  4 26  1  0  0  0  0
  6  9  1  0  0  0  0
  6 12  1  0  0  0  0
  8 10  1  0  0  0  0
  8 11  2  0  0  0  0
  9 13  1  0  0  0  0
  9 14  1  0  0  0  0
  9 15  1  0  0  0  0
 10 16  1  0  0  0  0
 10 17  1  0  0  0  0
 10 18  1  0  0  0  0
 19 20  1  0  0  0  0
 20 21  4  0  0  0  0
 20 25  4  0  0  0  0
 21 22  4  0  0  0  0
 21 27  1  0  0  0  0
 22 23  4  0  0  0  0
 22 28  1  0  0  0  0
 23 24  4  0  0  0  0
 23 26  1  0  0  0  0
 24 25  4  0  0  0  0
 24 29  1  0  0  0  0
 25 30  1  0  0  0  0
 26 31  1  0  0  0  0
 26 32  1  0  0  0  0
M  END
> <BCLConfClusterSize>
1

> <ConfClashScore>
0 

> <ConfOneFourInteractionScore>
-0.976093 

> <ConfScore>
0.0494481 

> <ConfScorePBest>
0.00407438 

> <ConfTolerance>
0.286204 

> <RosettaParamsInstructions>
M  ROOT 3
M  POLY_N_BB 3
M  POLY_CA_BB 4
M  POLY_C_BB 2
M  POLY_O_BB 5
M  POLY_IGNORE 9 10 11 12 13 14 15 16 17 18 
M  POLY_UPPER 6
M  POLY_LOWER 8
M  POLY_CHG 0
M  POLY_PROPERTIES ALPHA_AA L_AA PROTEIN AROMATIC POLYMER 
M  END

$$$$



 32 32  0  0  0  0  0  0  0  0999 V2000
   -2.1391    2.2667    3.2864 H   0  0  0  1  0  0  0  0  0  0  0  0
   -3.6310    1.6571    1.9286 C   0  0  0  1  0  0  0  0  0  0  0  0
   -1.5835    0.4690    2.4466 N   0  0  0  1  0  0  0  0  0  0  0  0
   -2.1694    1.7957    2.3262 C   0  0  0  1  0  0  0  0  0  0  0  0
   -4.0605    0.6198    1.4307 O   0  0  0  1  0  0  0  0  0  0  0  0
   -4.4022    2.7318    2.1578 N   0  0  0  1  0  0  0  0  0  0  0  0
   -0.8355    0.2274    1.8613 H   0  0  0  1  0  0  0  0  0  0  0  0
   -2.0299   -0.4310    3.3273 C   0  0  0  1  0  0  0  0  0  0  0  0
   -5.8361    2.7270    1.9090 C   0  0  0  1  0  0  0  0  0  0  0  0
   -1.3037   -1.7621    3.3343 C   0  0  0  1  0  0  0  0  0  0  0  0
   -2.9670   -0.2123    4.0904 O   0  0  0  1  0  0  0  0  0  0  0  0
   -3.9851    3.5479    2.5046 H   0  0  0  1  0  0  0  0  0  0  0  0
   -6.3507    2.4099    2.7920 H   0  0  0  1  0  0  0  0  0  0  0  0
   -6.0564    2.0539    1.1070 H   0  0  0  1  0  0  0  0  0  0  0  0
   -6.1553    3.7136    1.6453 H   0  0  0  1  0  0  0  0  0  0  0  0
   -1.9916   -2.5430    3.5832 H   0  0  0  1  0  0  0  0  0  0  0  0
   -0.5174   -1.7353    4.0595 H   0  0  0  1  0  0  0  0  0  0  0  0
   -0.8897   -1.9473    2.3652 H   0  0  0  1  0  0  0  0  0  0  0  0
   -4.4488    8.2256    0.4369 I   0  0  0  1  0  0  0  0  0  0  0  0
   -3.3967    6.4349    0.6711 C   0  0  0  1  0  0  0  0  0  0  0  0
   -2.5514    6.2854    1.7594 C   0  0  0  1  0  0  0  0  0  0  0  0
   -1.9095    5.0806    1.9758 C   0  0  0  1  0  0  0  0  0  0  0  0
   -2.1154    4.0201    1.1073 C   0  0  0  1  0  0  0  0  0  0  0  0
   -2.9583    4.1689    0.0221 C   0  0  0  1  0  0  0  0  0  0  0  0
   -3.6019    5.3773   -0.1948 C   0  0  0  1  0  0  0  0  0  0  0  0
   -1.4189    2.7013    1.3464 C   0  0  0  1  0  0  0  0  0  0  0  0
   -2.4000    7.0799    2.4132 H   0  0  0  1  0  0  0  0  0  0  0  0
   -1.2722    4.9698    2.7901 H   0  0  0  1  0  0  0  0  0  0  0  0
   -3.1096    3.3744   -0.6317 H   0  0  0  1  0  0  0  0  0  0  0  0
   -4.2393    5.4881   -1.0091 H   0  0  0  1  0  0  0  0  0  0  0  0
   -1.3280    2.1897    0.4111 H   0  0  0  1  0  0  0  0  0  0  0  0
   -0.4444    2.8977    1.7423 H   0  0  0  1  0  0  0  0  0  0  0  0
  1  4  1  0  0  0  0
  2  4  1  0  0  0  0
  2  5  2  0  0  0  0
  2  6  1  0  0  0  0
  3  4  1  0  0  0  0
  3  7  1  0  0  0  0
  3  8  1  0  0  0  0
  4 26  1  0  0  0  0
  6  9  1  0  0  0  0
  6 12  1  0  0  0  0
  8 10  1  0  0  0  0
  8 11  2  0  0  0  0
  9 13  1  0  0  0  0
  9 14  1  0  0  0  0
  9 15  1  0  0  0  0
 10 16  1  0  0  0  0
 10 17  1  0  0  0  0
 10 18  1  0  0  0  0
 19 20  1  0  0  0  0
 20 21  4  0  0  0  0
 20 25  4  0  0  0  0
 21 22  4  0  0  0  0
 21 27  1  0  0  0  0
 22 23  4  0  0  0  0
 22 28  1  0  0  0  0
 23 24  4  0  0  0  0
 23 26  1  0  0  0  0
 24 25  4  0  0  0  0
 24 29  1  0  0  0  0
 25 30  1  0  0  0  0
 26 31  1  0  0  0  0
 26 32  1  0  0  0  0
M  END
> <BCLConfClusterSize>
1

> <ConfClashScore>
0 

> <ConfOneFourInteractionScore>
-0.985807 

> <ConfScore>
0.053945 

> <ConfScorePBest>
0.00404589 

> <ConfTolerance>
0.515371 

> <RosettaParamsInstructions>
M  ROOT 3
M  POLY_N_BB 3
M  POLY_CA_BB 4
M  POLY_C_BB 2
M  POLY_O_BB 5
M  POLY_IGNORE 9 10 11 12 13 14 15 16 17 18 
M  POLY_UPPER 6
M  POLY_LOWER 8
M  POLY_CHG 0
M  POLY_PROPERTIES ALPHA_AA L_AA PROTEIN AROMATIC POLYMER 
M  END

$$$$



 32 32  0  0  0  0  0  0  0  0999 V2000
   -3.2412    1.6087    1.6438 H   0  0  0  1  0  0  0  0  0  0  0  0
   -1.6353    0.3230    2.1416 C   0  0  0  1  0  0  0  0  0  0  0  0
   -2.4800    2.1846    3.4783 N   0  0  0  1  0  0  0  0  0  0  0  0
   -2.2872    1.6998    2.1198 C   0  0  0  1  0  0  0  0  0  0  0  0
   -1.0524   -0.1218    1.1563 O   0  0  0  1  0  0  0  0  0  0  0  0
   -1.7425   -0.3518    3.2897 N   0  0  0  1  0  0  0  0  0  0  0  0
   -1.7037    2.4163    4.0296 H   0  0  0  1  0  0  0  0  0  0  0  0
   -3.7237    2.3157    3.9796 C   0  0  0  1  0  0  0  0  0  0  0  0
   -1.2103   -1.7021    3.3960 C   0  0  0  1  0  0  0  0  0  0  0  0
   -3.8078    2.7783    5.4285 C   0  0  0  1  0  0  0  0  0  0  0  0
   -4.7365    2.0817    3.3255 O   0  0  0  1  0  0  0  0  0  0  0  0
   -2.1805    0.0633    4.0618 H   0  0  0  1  0  0  0  0  0  0  0  0
   -1.5309   -2.2797    2.5543 H   0  0  0  1  0  0  0  0  0  0  0  0
   -1.5675   -2.1561    4.2967 H   0  0  0  1  0  0  0  0  0  0  0  0
   -0.1412   -1.6633    3.4152 H   0  0  0  1  0  0  0  0  0  0  0  0
   -3.2623    2.1011    6.0520 H   0  0  0  1  0  0  0  0  0  0  0  0
   -4.8322    2.8002    5.7368 H   0  0  0  1  0  0  0  0  0  0  0  0
   -3.3879    3.7587    5.5146 H   0  0  0  1  0  0  0  0  0  0  0  0
   -4.4677    8.2089    0.4001 I   0  0  0  1  0  0  0  0  0  0  0  0
   -3.3926    6.4384    0.6793 C   0  0  0  1  0  0  0  0  0  0  0  0
   -2.5471    6.2888    1.7675 C   0  0  0  1  0  0  0  0  0  0  0  0
   -1.9052    5.0841    1.9837 C   0  0  0  1  0  0  0  0  0  0  0  0
   -2.1111    4.0236    1.1151 C   0  0  0  1  0  0  0  0  0  0  0  0
   -2.9540    4.1725    0.0300 C   0  0  0  1  0  0  0  0  0  0  0  0
   -3.5978    5.3809   -0.1867 C   0  0  0  1  0  0  0  0  0  0  0  0
   -1.4422    2.6825    1.3031 C   0  0  0  1  0  0  0  0  0  0  0  0
   -2.3958    7.0833    2.4214 H   0  0  0  1  0  0  0  0  0  0  0  0
   -1.2678    4.9733    2.7979 H   0  0  0  1  0  0  0  0  0  0  0  0
   -3.1053    3.3781   -0.6239 H   0  0  0  1  0  0  0  0  0  0  0  0
   -4.2353    5.4918   -1.0009 H   0  0  0  1  0  0  0  0  0  0  0  0
   -1.2592    2.2551    0.3394 H   0  0  0  1  0  0  0  0  0  0  0  0
   -0.5118    2.8339    1.8093 H   0  0  0  1  0  0  0  0  0  0  0  0
  1  4  1  0  0  0  0
  2  4  1  0  0  0  0
  2  5  2  0  0  0  0
  2  6  1  0  0  0  0
  3  4  1  0  0  0  0
  3  7  1  0  0  0  0
  3  8  1  0  0  0  0
  4 26  1  0  0  0  0
  6  9  1  0  0  0  0
  6 12  1  0  0  0  0
  8 10  1  0  0  0  0
  8 11  2  0  0  0  0
  9 13  1  0  0  0  0
  9 14  1  0  0  0  0
  9 15  1  0  0  0  0
 10 16  1  0  0  0  0
 10 17  1  0  0  0  0
 10 18  1  0  0  0  0
 19 20  1  0  0  0  0
 20 21  4  0  0  0  0
 20 25  4  0  0  0  0
 21 22  4  0  0  0  0
 21 27  1  0  0  0  0
 22 23  4  0  0  0  0
 22 28  1  0  0  0  0
 23 24  4  0  0  0  0
 23 26  1  0  0  0  0
 24 25  4  0  0  0  0
 24 29  1  0  0  0  0
 25 30  1  0  0  0  0
 26 31  1  0  0  0  0
 26 32  1  0  0  0  0
M  END
> <BCLConfClusterSize>
1

> <ConfClashScore>
0 

> <ConfOneFourInteractionScore>
-0.94165 

> <ConfScore>
0.0582628 

> <ConfScorePBest>
0.00401741 

> <ConfTolerance>
0.328171 

> <RosettaParamsInstructions>
M  ROOT 3
M  POLY_N_BB 3
M  POLY_CA_BB 4
M  POLY_C_BB 2
M  POLY_O_BB 5
M  POLY_IGNORE 9 10 11 12 13 14 15 16 17 18 
M  POLY_UPPER 6
M  POLY_LOWER 8
M  POLY_CHG 0
M  POLY_PROPERTIES ALPHA_AA L_AA PROTEIN AROMATIC POLYMER 
M  END

$$$$



 32 32  0  0  0  0  0  0  0  0999 V2000
   -3.1652    1.6200    1.7236 H   0  0  0  1  0  0  0  0  0  0  0  0
   -1.5302    0.3614    2.2063 C   0  0  0  1  0  0  0  0  0  0  0  0
   -2.3692    2.1584    3.5551 N   0  0  0  1  0  0  0  0  0  0  0  0
   -2.2011    1.7322    2.1739 C   0  0  0  1  0  0  0  0  0  0  0  0
   -0.7005    0.0426    1.3706 O   0  0  0  1  0  0  0  0  0  0  0  0
   -1.9134   -0.4519    3.2033 N   0  0  0  1  0  0  0  0  0  0  0  0
   -3.2568    2.4646    3.8360 H   0  0  0  1  0  0  0  0  0  0  0  0
   -1.3926    2.1590    4.4629 C   0  0  0  1  0  0  0  0  0  0  0  0
   -1.2663   -1.7308    3.4554 C   0  0  0  1  0  0  0  0  0  0  0  0
   -1.8030    2.6733    5.8439 C   0  0  0  1  0  0  0  0  0  0  0  0
   -0.2618    1.7139    4.2710 O   0  0  0  1  0  0  0  0  0  0  0  0
   -2.6546   -0.1748    3.7814 H   0  0  0  1  0  0  0  0  0  0  0  0
   -0.4759   -1.8766    2.7491 H   0  0  0  1  0  0  0  0  0  0  0  0
   -1.9833   -2.5188    3.3556 H   0  0  0  1  0  0  0  0  0  0  0  0
   -0.8641   -1.7374    4.4469 H   0  0  0  1  0  0  0  0  0  0  0  0
   -1.9053    3.7380    5.8126 H   0  0  0  1  0  0  0  0  0  0  0  0
   -1.0537    2.4081    6.5602 H   0  0  0  1  0  0  0  0  0  0  0  0
   -2.7372    2.2337    6.1248 H   0  0  0  1  0  0  0  0  0  0  0  0
   -4.4032    8.2433    0.3789 I   0  0  0  1  0  0  0  0  0  0  0  0
   -3.4175    6.4271    0.6918 C   0  0  0  1  0  0  0  0  0  0  0  0
   -2.5641    6.2783    1.7740 C   0  0  0  1  0  0  0  0  0  0  0  0
   -1.9084    5.0788    1.9774 C   0  0  0  1  0  0  0  0  0  0  0  0
   -2.1083    4.0227    1.1021 C   0  0  0  1  0  0  0  0  0  0  0  0
   -2.9591    4.1708    0.0229 C   0  0  0  1  0  0  0  0  0  0  0  0
   -3.6167    5.3740   -0.1809 C   0  0  0  1  0  0  0  0  0  0  0  0
   -1.3965    2.7096    1.3270 C   0  0  0  1  0  0  0  0  0  0  0  0
   -2.4173    7.0693    2.4330 H   0  0  0  1  0  0  0  0  0  0  0  0
   -1.2651    4.9685    2.7871 H   0  0  0  1  0  0  0  0  0  0  0  0
   -3.1058    3.3797   -0.6360 H   0  0  0  1  0  0  0  0  0  0  0  0
   -4.2600    5.4843   -0.9906 H   0  0  0  1  0  0  0  0  0  0  0  0
   -1.2052    2.2586    0.3757 H   0  0  0  1  0  0  0  0  0  0  0  0
   -0.4686    2.9057    1.8224 H   0  0  0  1  0  0  0  0  0  0  0  0
  1  4  1  0  0  0  0
  2  4  1  0  0  0  0
  2  5  2  0  0  0  0
  2  6  1  0  0  0  0
  3  4  1  0  0  0  0
  3  7  1  0  0  0  0
  3  8  1  0  0  0  0
  4 26  1  0  0  0  0
  6  9  1  0  0  0  0
  6 12  1  0  0  0  0
  8 10  1  0  0  0  0
  8 11  2  0  0  0  0
  9 13  1  0  0  0  0
  9 14  1  0  0  0  0
  9 15  1  0  0  0  0
 10 16  1  0  0  0  0
 10 17  1  0  0  0  0
 10 18  1  0  0  0  0
 19 20  1  0  0  0  0
 20 21  4  0  0  0  0
 20 25  4  0  0  0  0
 21 22  4  0  0  0  0
 21 27  1  0  0  0  0
 22 23  4  0  0  0  0
 22 28  1  0  0  0  0
 23 24  4  0  0  0  0
 23 26  1  0  0  0  0
 24 25  4  0  0  0  0
 24 29  1  0  0  0  0
 25 30  1  0  0  0  0
 26 31  1  0  0  0  0
 26 32  1  0  0  0  0
M  END
> <BCLConfClusterSize>
1

> <ConfClashScore>
0 

> <ConfOneFourInteractionScore>
-0.938696 

> <ConfScore>
0.0611835 

> <ConfScorePBest>
0.00398893 

> <ConfTolerance>
0.23751 

> <RosettaParamsInstructions>
M  ROOT 3
M  POLY_N_BB 3
M  POLY_CA_BB 4
M  POLY_C_BB 2
M  POLY_O_BB 5
M  POLY_IGNORE 9 10 11 12 13 14 15 16 17 18 
M  POLY_UPPER 6
M  POLY_LOWER 8
M  POLY_CHG 0
M  POLY_PROPERTIES ALPHA_AA L_AA PROTEIN AROMATIC POLYMER 
M  END

$$$$



 32 32  0  0  0  0  0  0  0  0999 V2000
   -0.7670    3.0852    3.3611 H   0  0  0  1  0  0  0  0  0  0  0  0
    0.4404    1.5447    2.5765 C   0  0  0  1  0  0  0  0  0  0  0  0
    0.5907    3.9750    2.0844 N   0  0  0  1  0  0  0  0  0  0  0  0
   -0.2872    2.8670    2.4299 C   0  0  0  1  0  0  0  0  0  0  0  0
    1.3516    1.1752    1.8543 O   0  0  0  1  0  0  0  0  0  0  0  0
   -0.0097    0.7972    3.5882 N   0  0  0  1  0  0  0  0  0  0  0  0
    0.4792    4.4135    1.2151 H   0  0  0  1  0  0  0  0  0  0  0  0
    1.5435    4.4152    2.9111 C   0  0  0  1  0  0  0  0  0  0  0  0
    0.4943   -0.5429    3.8488 C   0  0  0  1  0  0  0  0  0  0  0  0
    2.2883    5.6554    2.4569 C   0  0  0  1  0  0  0  0  0  0  0  0
    1.8134    3.8628    3.9768 O   0  0  0  1  0  0  0  0  0  0  0  0
   -0.7035    1.1640    4.1752 H   0  0  0  1  0  0  0  0  0  0  0  0
    1.5631   -0.5389    3.7970 H   0  0  0  1  0  0  0  0  0  0  0  0
    0.1045   -1.2190    3.1168 H   0  0  0  1  0  0  0  0  0  0  0  0
    0.1860   -0.8562    4.8244 H   0  0  0  1  0  0  0  0  0  0  0  0
    1.8958    6.5130    2.9623 H   0  0  0  1  0  0  0  0  0  0  0  0
    2.1667    5.7775    1.4009 H   0  0  0  1  0  0  0  0  0  0  0  0
    3.3281    5.5510    2.6870 H   0  0  0  1  0  0  0  0  0  0  0  0
   -4.4007    8.2454    0.3836 I   0  0  0  1  0  0  0  0  0  0  0  0
   -3.4178    6.4267    0.6912 C   0  0  0  1  0  0  0  0  0  0  0  0
   -2.5636    6.2739    1.7722 C   0  0  0  1  0  0  0  0  0  0  0  0
   -1.9097    5.0728    1.9721 C   0  0  0  1  0  0  0  0  0  0  0  0
   -2.1123    4.0191    1.0945 C   0  0  0  1  0  0  0  0  0  0  0  0
   -2.9639    4.1713    0.0166 C   0  0  0  1  0  0  0  0  0  0  0  0
   -3.6196    5.3760   -0.1838 C   0  0  0  1  0  0  0  0  0  0  0  0
   -1.3776    2.7270    1.3628 C   0  0  0  1  0  0  0  0  0  0  0  0
   -2.4148    7.0632    2.4329 H   0  0  0  1  0  0  0  0  0  0  0  0
   -1.2658    4.9596    2.7809 H   0  0  0  1  0  0  0  0  0  0  0  0
   -3.1127    3.3820   -0.6441 H   0  0  0  1  0  0  0  0  0  0  0  0
   -4.2635    5.4893   -0.9926 H   0  0  0  1  0  0  0  0  0  0  0  0
   -2.0850    1.9951    1.6927 H   0  0  0  1  0  0  0  0  0  0  0  0
   -0.9224    2.3986    0.4518 H   0  0  0  1  0  0  0  0  0  0  0  0
  1  4  1  0  0  0  0
  2  4  1  0  0  0  0
  2  5  2  0  0  0  0
  2  6  1  0  0  0  0
  3  4  1  0  0  0  0
  3  7  1  0  0  0  0
  3  8  1  0  0  0  0
  4 26  1  0  0  0  0
  6  9  1  0  0  0  0
  6 12  1  0  0  0  0
  8 10  1  0  0  0  0
  8 11  2  0  0  0  0
  9 13  1  0  0  0  0
  9 14  1  0  0  0  0
  9 15  1  0  0  0  0
 10 16  1  0  0  0  0
 10 17  1  0  0  0  0
 10 18  1  0  0  0  0
 19 20  1  0  0  0  0
 20 21  4  0  0  0  0
 20 25  4  0  0  0  0
 21 22  4  0  0  0  0
 21 27  1  0  0  0  0
 22 23  4  0  0  0  0
 22 28  1  0  0  0  0
 23 24  4  0  0  0  0
 23 26  1  0  0  0  0
 24 25  4  0  0  0  0
 24 29  1  0  0  0  0
 25 30  1  0  0  0  0
 26 31  1  0  0  0  0
 26 32  1  0  0  0  0
M  END
> <BCLConfClusterSize>
1

> <ConfClashScore>
0 

> <ConfOneFourInteractionScore>
-0.978366 

> <ConfScore>
0.0614279 

> <ConfScorePBest>
0.00396045 

> <ConfTolerance>
0.437494 

> <RosettaParamsInstructions>
M  ROOT 3
M  POLY_N_BB 3
M  POLY_CA_BB 4
M  POLY_C_BB 2
M  POLY_O_BB 5
M  POLY_IGNORE 9 10 11 12 13 14 15 16 17 18 
M  POLY_UPPER 6
M  POLY_LOWER 8
M  POLY_CHG 0
M  POLY_PROPERTIES ALPHA_AA L_AA PROTEIN AROMATIC POLYMER 
M  END

$$$$



 32 32  0  0  0  0  0  0  0  0999 V2000
   -0.0194    1.3937    0.4277 H   0  0  0  1  0  0  0  0  0  0  0  0
   -1.3854    1.9599   -1.0706 C   0  0  0  1  0  0  0  0  0  0  0  0
    0.4719    3.3195   -0.1331 N   0  0  0  1  0  0  0  0  0  0  0  0
   -0.5324    2.2893    0.1453 C   0  0  0  1  0  0  0  0  0  0  0  0
   -1.5396    2.7792   -1.9724 O   0  0  0  1  0  0  0  0  0  0  0  0
   -1.9658    0.7433   -1.1274 N   0  0  0  1  0  0  0  0  0  0  0  0
    0.2714    3.9796   -0.8291 H   0  0  0  1  0  0  0  0  0  0  0  0
    1.6807    3.4192    0.5217 C   0  0  0  1  0  0  0  0  0  0  0  0
   -2.8839    0.4215   -2.2097 C   0  0  0  1  0  0  0  0  0  0  0  0
    2.5645    4.5560    0.0983 C   0  0  0  1  0  0  0  0  0  0  0  0
    1.9752    2.6139    1.3847 O   0  0  0  1  0  0  0  0  0  0  0  0
   -1.7687    0.0748   -0.4384 H   0  0  0  1  0  0  0  0  0  0  0  0
   -3.3751    1.3134   -2.5385 H   0  0  0  1  0  0  0  0  0  0  0  0
   -3.6135   -0.2796   -1.8617 H   0  0  0  1  0  0  0  0  0  0  0  0
   -2.3382   -0.0059   -3.0248 H   0  0  0  1  0  0  0  0  0  0  0  0
    2.0533    5.4830    0.2538 H   0  0  0  1  0  0  0  0  0  0  0  0
    2.8065    4.4521   -0.9388 H   0  0  0  1  0  0  0  0  0  0  0  0
    3.4638    4.5433    0.6779 H   0  0  0  1  0  0  0  0  0  0  0  0
   -4.4032    8.2433    0.3789 I   0  0  0  1  0  0  0  0  0  0  0  0
   -3.4175    6.4271    0.6918 C   0  0  0  1  0  0  0  0  0  0  0  0
   -2.5641    6.2783    1.7740 C   0  0  0  1  0  0  0  0  0  0  0  0
   -1.9084    5.0788    1.9774 C   0  0  0  1  0  0  0  0  0  0  0  0
   -2.1083    4.0227    1.1021 C   0  0  0  1  0  0  0  0  0  0  0  0
   -2.9591    4.1708    0.0229 C   0  0  0  1  0  0  0  0  0  0  0  0
   -3.6167    5.3740   -0.1809 C   0  0  0  1  0  0  0  0  0  0  0  0
   -1.3965    2.7096    1.3270 C   0  0  0  1  0  0  0  0  0  0  0  0
   -2.4173    7.0693    2.4330 H   0  0  0  1  0  0  0  0  0  0  0  0
   -1.2651    4.9685    2.7871 H   0  0  0  1  0  0  0  0  0  0  0  0
   -3.1058    3.3797   -0.6360 H   0  0  0  1  0  0  0  0  0  0  0  0
   -4.2600    5.4843   -0.9906 H   0  0  0  1  0  0  0  0  0  0  0  0
   -0.7707    2.8048    2.1897 H   0  0  0  1  0  0  0  0  0  0  0  0
   -2.1299    1.9499    1.4999 H   0  0  0  1  0  0  0  0  0  0  0  0
  1  4  1  0  0  0  0
  2  4  1  0  0  0  0
  2  5  2  0  0  0  0
  2  6  1  0  0  0  0
  3  4  1  0  0  0  0
  3  7  1  0  0  0  0
  3  8  1  0  0  0  0
  4 26  1  0  0  0  0
  6  9  1  0  0  0  0
  6 12  1  0  0  0  0
  8 10  1  0  0  0  0
  8 11  2  0  0  0  0
  9 13  1  0  0  0  0
  9 14  1  0  0  0  0
  9 15  1  0  0  0  0
 10 16  1  0  0  0  0
 10 17  1  0  0  0  0
 10 18  1  0  0  0  0
 19 20  1  0  0  0  0
 20 21  4  0  0  0  0
 20 25  4  0  0  0  0
 21 22  4  0  0  0  0
 21 27  1  0  0  0  0
 22 23  4  0  0  0  0
 22 28  1  0  0  0  0
 23 24  4  0  0  0  0
 23 26  1  0  0  0  0
 24 25  4  0  0  0  0
 24 29  1  0  0  0  0
 25 30  1  0  0  0  0
 26 31  1  0  0  0  0
 26 32  1  0  0  0  0
M  END
> <BCLConfClusterSize>
1

> <ConfClashScore>
0 

> <ConfOneFourInteractionScore>
-0.980789 

> <ConfScore>
0.0700807 

> <ConfScorePBest>
0.00393197 

> <ConfTolerance>
0.455996 

> <RosettaParamsInstructions>
M  ROOT 3
M  POLY_N_BB 3
M  POLY_CA_BB 4
M  POLY_C_BB 2
M  POLY_O_BB 5
M  POLY_IGNORE 9 10 11 12 13 14 15 16 17 18 
M  POLY_UPPER 6
M  POLY_LOWER 8
M  POLY_CHG 0
M  POLY_PROPERTIES ALPHA_AA L_AA PROTEIN AROMATIC POLYMER 
M  END

$$$$



 32 32  0  0  0  0  0  0  0  0999 V2000
    0.3746    1.7719    0.6876 H   0  0  0  1  0  0  0  0  0  0  0  0
   -0.4336    2.7524   -0.9931 C   0  0  0  1  0  0  0  0  0  0  0  0
    0.7566    3.7794    0.9249 N   0  0  0  1  0  0  0  0  0  0  0  0
   -0.1222    2.7005    0.4986 C   0  0  0  1  0  0  0  0  0  0  0  0
   -0.6996    1.7401   -1.6199 O   0  0  0  1  0  0  0  0  0  0  0  0
   -0.3946    3.9632   -1.5515 N   0  0  0  1  0  0  0  0  0  0  0  0
    0.3529    4.6594    1.0765 H   0  0  0  1  0  0  0  0  0  0  0  0
    2.0777    3.6600    1.1260 C   0  0  0  1  0  0  0  0  0  0  0  0
   -0.8681    4.2786   -2.8910 C   0  0  0  1  0  0  0  0  0  0  0  0
    2.8280    4.9255    1.5603 C   0  0  0  1  0  0  0  0  0  0  0  0
    2.6756    2.5878    1.0534 O   0  0  0  1  0  0  0  0  0  0  0  0
   -0.0188    4.6955   -1.0196 H   0  0  0  1  0  0  0  0  0  0  0  0
   -0.6109    3.4821   -3.5575 H   0  0  0  1  0  0  0  0  0  0  0  0
   -0.4104    5.1858   -3.2263 H   0  0  0  1  0  0  0  0  0  0  0  0
   -1.9310    4.4000   -2.8739 H   0  0  0  1  0  0  0  0  0  0  0  0
    3.1305    4.8285    2.5820 H   0  0  0  1  0  0  0  0  0  0  0  0
    2.1843    5.7742    1.4582 H   0  0  0  1  0  0  0  0  0  0  0  0
    3.6925    5.0567    0.9436 H   0  0  0  1  0  0  0  0  0  0  0  0
   -4.4032    8.2433    0.3789 I   0  0  0  1  0  0  0  0  0  0  0  0
   -3.4175    6.4271    0.6918 C   0  0  0  1  0  0  0  0  0  0  0  0
   -2.5641    6.2783    1.7740 C   0  0  0  1  0  0  0  0  0  0  0  0
   -1.9084    5.0788    1.9774 C   0  0  0  1  0  0  0  0  0  0  0  0
   -2.1083    4.0227    1.1021 C   0  0  0  1  0  0  0  0  0  0  0  0
   -2.9591    4.1708    0.0229 C   0  0  0  1  0  0  0  0  0  0  0  0
   -3.6167    5.3740   -0.1809 C   0  0  0  1  0  0  0  0  0  0  0  0
   -1.3965    2.7096    1.3270 C   0  0  0  1  0  0  0  0  0  0  0  0
   -2.4173    7.0693    2.4330 H   0  0  0  1  0  0  0  0  0  0  0  0
   -1.2651    4.9685    2.7871 H   0  0  0  1  0  0  0  0  0  0  0  0
   -3.1058    3.3797   -0.6360 H   0  0  0  1  0  0  0  0  0  0  0  0
   -4.2600    5.4843   -0.9906 H   0  0  0  1  0  0  0  0  0  0  0  0
   -1.1531    2.6046    2.3636 H   0  0  0  1  0  0  0  0  0  0  0  0
   -2.0285    1.9008    1.0248 H   0  0  0  1  0  0  0  0  0  0  0  0
  1  4  1  0  0  0  0
  2  4  1  0  0  0  0
  2  5  2  0  0  0  0
  2  6  1  0  0  0  0
  3  4  1  0  0  0  0
  3  7  1  0  0  0  0
  3  8  1  0  0  0  0
  4 26  1  0  0  0  0
  6  9  1  0  0  0  0
  6 12  1  0  0  0  0
  8 10  1  0  0  0  0
  8 11  2  0  0  0  0
  9 13  1  0  0  0  0
  9 14  1  0  0  0  0
  9 15  1  0  0  0  0
 10 16  1  0  0  0  0
 10 17  1  0  0  0  0
 10 18  1  0  0  0  0
 19 20  1  0  0  0  0
 20 21  4  0  0  0  0
 20 25  4  0  0  0  0
 21 22  4  0  0  0  0
 21 27  1  0  0  0  0
 22 23  4  0  0  0  0
 22 28  1  0  0  0  0
 23 24  4  0  0  0  0
 23 26  1  0  0  0  0
 24 25  4  0  0  0  0
 24 29  1  0  0  0  0
 25 30  1  0  0  0  0
 26 31  1  0  0  0  0
 26 32  1  0  0  0  0
M  END
> <BCLConfClusterSize>
1

> <ConfClashScore>
0 

> <ConfOneFourInteractionScore>
-0.950605 

> <ConfScore>
0.0775868 

> <ConfScorePBest>
0.00390349 

> <ConfTolerance>
0.441533 

> <RosettaParamsInstructions>
M  ROOT 3
M  POLY_N_BB 3
M  POLY_CA_BB 4
M  POLY_C_BB 2
M  POLY_O_BB 5
M  POLY_IGNORE 9 10 11 12 13 14 15 16 17 18 
M  POLY_UPPER 6
M  POLY_LOWER 8
M  POLY_CHG 0
M  POLY_PROPERTIES ALPHA_AA L_AA PROTEIN AROMATIC POLYMER 
M  END

$$$$



 32 32  0  0  0  0  0  0  0  0999 V2000
   -1.5719    0.9286    2.4809 H   0  0  0  1  0  0  0  0  0  0  0  0
   -2.8572    2.3776    3.3438 C   0  0  0  1  0  0  0  0  0  0  0  0
   -3.2813    1.1552    1.3198 N   0  0  0  1  0  0  0  0  0  0  0  0
   -2.2132    1.7146    2.1406 C   0  0  0  1  0  0  0  0  0  0  0  0
   -4.0368    2.7187    3.3187 O   0  0  0  1  0  0  0  0  0  0  0  0
   -2.1048    2.5781    4.4268 N   0  0  0  1  0  0  0  0  0  0  0  0
   -3.3382    1.4146    0.3765 H   0  0  0  1  0  0  0  0  0  0  0  0
   -4.1936    0.2928    1.8141 C   0  0  0  1  0  0  0  0  0  0  0  0
   -2.5651    3.2054    5.6566 C   0  0  0  1  0  0  0  0  0  0  0  0
   -5.3455   -0.1177    0.9176 C   0  0  0  1  0  0  0  0  0  0  0  0
   -4.0961   -0.1489    2.9582 O   0  0  0  1  0  0  0  0  0  0  0  0
   -1.1717    2.2805    4.3917 H   0  0  0  1  0  0  0  0  0  0  0  0
   -2.1598    2.6826    6.4976 H   0  0  0  1  0  0  0  0  0  0  0  0
   -3.6338    3.1702    5.6963 H   0  0  0  1  0  0  0  0  0  0  0  0
   -2.2402    4.2246    5.6801 H   0  0  0  1  0  0  0  0  0  0  0  0
   -5.1233    0.1496   -0.0944 H   0  0  0  1  0  0  0  0  0  0  0  0
   -6.2373    0.3837    1.2310 H   0  0  0  1  0  0  0  0  0  0  0  0
   -5.4888   -1.1760    0.9834 H   0  0  0  1  0  0  0  0  0  0  0  0
   -4.4007    8.2454    0.3836 I   0  0  0  1  0  0  0  0  0  0  0  0
   -3.4178    6.4267    0.6912 C   0  0  0  1  0  0  0  0  0  0  0  0
   -2.5636    6.2739    1.7722 C   0  0  0  1  0  0  0  0  0  0  0  0
   -1.9097    5.0728    1.9721 C   0  0  0  1  0  0  0  0  0  0  0  0
   -2.1123    4.0191    1.0945 C   0  0  0  1  0  0  0  0  0  0  0  0
   -2.9639    4.1713    0.0166 C   0  0  0  1  0  0  0  0  0  0  0  0
   -3.6196    5.3760   -0.1838 C   0  0  0  1  0  0  0  0  0  0  0  0
   -1.3776    2.7270    1.3628 C   0  0  0  1  0  0  0  0  0  0  0  0
   -2.4148    7.0632    2.4329 H   0  0  0  1  0  0  0  0  0  0  0  0
   -1.2658    4.9596    2.7809 H   0  0  0  1  0  0  0  0  0  0  0  0
   -3.1127    3.3820   -0.6441 H   0  0  0  1  0  0  0  0  0  0  0  0
   -4.2635    5.4893   -0.9926 H   0  0  0  1  0  0  0  0  0  0  0  0
   -1.1008    2.2916    0.4254 H   0  0  0  1  0  0  0  0  0  0  0  0
   -0.4963    2.9474    1.9283 H   0  0  0  1  0  0  0  0  0  0  0  0
  1  4  1  0  0  0  0
  2  4  1  0  0  0  0
  2  5  2  0  0  0  0
  2  6  1  0  0  0  0
  3  4  1  0  0  0  0
  3  7  1  0  0  0  0
  3  8  1  0  0  0  0
  4 26  1  0  0  0  0
  6  9  1  0  0  0  0
  6 12  1  0  0  0  0
  8 10  1  0  0  0  0
  8 11  2  0  0  0  0
  9 13  1  0  0  0  0
  9 14  1  0  0  0  0
  9 15  1  0  0  0  0
 10 16  1  0  0  0  0
 10 17  1  0  0  0  0
 10 18  1  0  0  0  0
 19 20  1  0  0  0  0
 20 21  4  0  0  0  0
 20 25  4  0  0  0  0
 21 22  4  0  0  0  0
 21 27  1  0  0  0  0
 22 23  4  0  0  0  0
 22 28  1  0  0  0  0
 23 24  4  0  0  0  0
 23 26  1  0  0  0  0
 24 25  4  0  0  0  0
 24 29  1  0  0  0  0
 25 30  1  0  0  0  0
 26 31  1  0  0  0  0
 26 32  1  0  0  0  0
M  END
> <BCLConfClusterSize>
1

> <ConfClashScore>
0 

> <ConfOneFourInteractionScore>
-0.982563 

> <ConfScore>
0.0779184 

> <ConfScorePBest>
0.00387501 

> <ConfTolerance>
0.370293 

> <RosettaParamsInstructions>
M  ROOT 3
M  POLY_N_BB 3
M  POLY_CA_BB 4
M  POLY_C_BB 2
M  POLY_O_BB 5
M  POLY_IGNORE 9 10 11 12 13 14 15 16 17 18 
M  POLY_UPPER 6
M  POLY_LOWER 8
M  POLY_CHG 0
M  POLY_PROPERTIES ALPHA_AA L_AA PROTEIN AROMATIC POLYMER 
M  END

$$$$



 32 32  0  0  0  0  0  0  0  0999 V2000
   -1.9111    2.6586    3.3748 H   0  0  0  1  0  0  0  0  0  0  0  0
   -3.1539    1.2703    2.3728 C   0  0  0  1  0  0  0  0  0  0  0  0
   -0.7997    0.9685    2.9456 N   0  0  0  1  0  0  0  0  0  0  0  0
   -1.8080    1.9515    2.5784 C   0  0  0  1  0  0  0  0  0  0  0  0
   -4.2099    1.8761    2.5505 O   0  0  0  1  0  0  0  0  0  0  0  0
   -3.1044   -0.0156    1.9906 N   0  0  0  1  0  0  0  0  0  0  0  0
    0.0558    0.9672    2.4674 H   0  0  0  1  0  0  0  0  0  0  0  0
   -1.0013    0.0601    3.9200 C   0  0  0  1  0  0  0  0  0  0  0  0
   -4.2809   -0.8721    1.9894 C   0  0  0  1  0  0  0  0  0  0  0  0
    0.1943   -0.8518    4.1638 C   0  0  0  1  0  0  0  0  0  0  0  0
   -2.0313   -0.0491    4.5656 O   0  0  0  1  0  0  0  0  0  0  0  0
   -2.2461   -0.3906    1.7023 H   0  0  0  1  0  0  0  0  0  0  0  0
   -3.9926   -1.8754    2.2246 H   0  0  0  1  0  0  0  0  0  0  0  0
   -4.7371   -0.8499    1.0218 H   0  0  0  1  0  0  0  0  0  0  0  0
   -4.9782   -0.5209    2.7211 H   0  0  0  1  0  0  0  0  0  0  0  0
    0.4012   -1.4142    3.2773 H   0  0  0  1  0  0  0  0  0  0  0  0
   -0.0269   -1.5223    4.9678 H   0  0  0  1  0  0  0  0  0  0  0  0
    1.0485   -0.2594    4.4174 H   0  0  0  1  0  0  0  0  0  0  0  0
   -4.4032    8.2433    0.3789 I   0  0  0  1  0  0  0  0  0  0  0  0
   -3.4175    6.4271    0.6918 C   0  0  0  1  0  0  0  0  0  0  0  0
   -2.5641    6.2783    1.7740 C   0  0  0  1  0  0  0  0  0  0  0  0
   -1.9084    5.0788    1.9774 C   0  0  0  1  0  0  0  0  0  0  0  0
   -2.1083    4.0227    1.1021 C   0  0  0  1  0  0  0  0  0  0  0  0
   -2.9591    4.1708    0.0229 C   0  0  0  1  0  0  0  0  0  0  0  0
   -3.6167    5.3740   -0.1809 C   0  0  0  1  0  0  0  0  0  0  0  0
   -1.3965    2.7096    1.3270 C   0  0  0  1  0  0  0  0  0  0  0  0
   -2.4173    7.0693    2.4330 H   0  0  0  1  0  0  0  0  0  0  0  0
   -1.2651    4.9685    2.7871 H   0  0  0  1  0  0  0  0  0  0  0  0
   -3.1058    3.3797   -0.6360 H   0  0  0  1  0  0  0  0  0  0  0  0
   -4.2600    5.4843   -0.9906 H   0  0  0  1  0  0  0  0  0  0  0  0
   -1.5883    2.0813    0.4824 H   0  0  0  1  0  0  0  0  0  0  0  0
   -0.3474    2.9098    1.3923 H   0  0  0  1  0  0  0  0  0  0  0  0
  1  4  1  0  0  0  0
  2  4  1  0  0  0  0
  2  5  2  0  0  0  0
  2  6  1  0  0  0  0
  3  4  1  0  0  0  0
  3  7  1  0  0  0  0
  3  8  1  0  0  0  0
  4 26  1  0  0  0  0
  6  9  1  0  0  0  0
  6 12  1  0  0  0  0
  8 10  1  0  0  0  0
  8 11  2  0  0  0  0
  9 13  1  0  0  0  0
  9 14  1  0  0  0  0
  9 15  1  0  0  0  0
 10 16  1  0  0  0  0
 10 17  1  0  0  0  0
 10 18  1  0  0  0  0
 19 20  1  0  0  0  0
 20 21  4  0  0  0  0
 20 25  4  0  0  0  0
 21 22  4  0  0  0  0
 21 27  1  0  0  0  0
 22 23  4  0  0  0  0
 22 28  1  0  0  0  0
 23 24  4  0  0  0  0
 23 26  1  0  0  0  0
 24 25  4  0  0  0  0
 24 29  1  0  0  0  0
 25 30  1  0  0  0  0
 26 31  1  0  0  0  0
 26 32  1  0  0  0  0
M  END
> <BCLConfClusterSize>
1

> <ConfClashScore>
0 

> <ConfOneFourInteractionScore>
-0.952638 

> <ConfScore>
0.0796038 

> <ConfScorePBest>
0.00384653 

> <ConfTolerance>
0.540283 

> <RosettaParamsInstructions>
M  ROOT 3
M  POLY_N_BB 3
M  POLY_CA_BB 4
M  POLY_C_BB 2
M  POLY_O_BB 5
M  POLY_IGNORE 9 10 11 12 13 14 15 16 17 18 
M  POLY_UPPER 6
M  POLY_LOWER 8
M  POLY_CHG 0
M  POLY_PROPERTIES ALPHA_AA L_AA PROTEIN AROMATIC POLYMER 
M  END

$$$$



 32 32  0  0  0  0  0  0  0  0999 V2000
    0.0207    1.5703    0.2646 H   0  0  0  1  0  0  0  0  0  0  0  0
    0.0563    3.5072   -0.5646 C   0  0  0  1  0  0  0  0  0  0  0  0
    1.0280    2.7731    1.5958 N   0  0  0  1  0  0  0  0  0  0  0  0
   -0.0466    2.5719    0.6352 C   0  0  0  1  0  0  0  0  0  0  0  0
   -0.1653    3.1111   -1.6970 O   0  0  0  1  0  0  0  0  0  0  0  0
    0.4019    4.7739   -0.2882 N   0  0  0  1  0  0  0  0  0  0  0  0
    0.8189    2.8901    2.5460 H   0  0  0  1  0  0  0  0  0  0  0  0
    2.3097    2.7989    1.1814 C   0  0  0  1  0  0  0  0  0  0  0  0
    0.4430    5.8091   -1.3102 C   0  0  0  1  0  0  0  0  0  0  0  0
    3.3583    2.9367    2.2796 C   0  0  0  1  0  0  0  0  0  0  0  0
    2.6326    2.7178   -0.0030 O   0  0  0  1  0  0  0  0  0  0  0  0
    0.6348    5.0101    0.6339 H   0  0  0  1  0  0  0  0  0  0  0  0
   -0.5377    5.9518   -1.7137 H   0  0  0  1  0  0  0  0  0  0  0  0
    1.1103    5.5118   -2.0920 H   0  0  0  1  0  0  0  0  0  0  0  0
    0.7866    6.7248   -0.8763 H   0  0  0  1  0  0  0  0  0  0  0  0
    3.3430    2.0646    2.8994 H   0  0  0  1  0  0  0  0  0  0  0  0
    3.1411    3.7999    2.8734 H   0  0  0  1  0  0  0  0  0  0  0  0
    4.3266    3.0422    1.8367 H   0  0  0  1  0  0  0  0  0  0  0  0
   -4.4032    8.2433    0.3789 I   0  0  0  1  0  0  0  0  0  0  0  0
   -3.4175    6.4271    0.6918 C   0  0  0  1  0  0  0  0  0  0  0  0
   -2.5641    6.2783    1.7740 C   0  0  0  1  0  0  0  0  0  0  0  0
   -1.9084    5.0788    1.9774 C   0  0  0  1  0  0  0  0  0  0  0  0
   -2.1083    4.0227    1.1021 C   0  0  0  1  0  0  0  0  0  0  0  0
   -2.9591    4.1708    0.0229 C   0  0  0  1  0  0  0  0  0  0  0  0
   -3.6167    5.3740   -0.1809 C   0  0  0  1  0  0  0  0  0  0  0  0
   -1.3965    2.7096    1.3270 C   0  0  0  1  0  0  0  0  0  0  0  0
   -2.4173    7.0693    2.4330 H   0  0  0  1  0  0  0  0  0  0  0  0
   -1.2651    4.9685    2.7871 H   0  0  0  1  0  0  0  0  0  0  0  0
   -3.1058    3.3797   -0.6360 H   0  0  0  1  0  0  0  0  0  0  0  0
   -4.2600    5.4843   -0.9906 H   0  0  0  1  0  0  0  0  0  0  0  0
   -1.2414    2.5943    2.3794 H   0  0  0  1  0  0  0  0  0  0  0  0
   -2.0312    1.9250    0.9714 H   0  0  0  1  0  0  0  0  0  0  0  0
  1  4  1  0  0  0  0
  2  4  1  0  0  0  0
  2  5  2  0  0  0  0
  2  6  1  0  0  0  0
  3  4  1  0  0  0  0
  3  7  1  0  0  0  0
  3  8  1  0  0  0  0
  4 26  1  0  0  0  0
  6  9  1  0  0  0  0
  6 12  1  0  0  0  0
  8 10  1  0  0  0  0
  8 11  2  0  0  0  0
  9 13  1  0  0  0  0
  9 14  1  0  0  0  0
  9 15  1  0  0  0  0
 10 16  1  0  0  0  0
 10 17  1  0  0  0  0
 10 18  1  0  0  0  0
 19 20  1  0  0  0  0
 20 21  4  0  0  0  0
 20 25  4  0  0  0  0
 21 22  4  0  0  0  0
 21 27  1  0  0  0  0
 22 23  4  0  0  0  0
 22 28  1  0  0  0  0
 23 24  4  0  0  0  0
 23 26  1  0  0  0  0
 24 25  4  0  0  0  0
 24 29  1  0  0  0  0
 25 30  1  0  0  0  0
 26 31  1  0  0  0  0
 26 32  1  0  0  0  0
M  END
> <BCLConfClusterSize>
1

> <ConfClashScore>
0 

> <ConfOneFourInteractionScore>
-0.942345 

> <ConfScore>
0.0817755 

> <ConfScorePBest>
0.00381805 

> <ConfTolerance>
0.560149 

> <RosettaParamsInstructions>
M  ROOT 3
M  POLY_N_BB 3
M  POLY_CA_BB 4
M  POLY_C_BB 2
M  POLY_O_BB 5
M  POLY_IGNORE 9 10 11 12 13 14 15 16 17 18 
M  POLY_UPPER 6
M  POLY_LOWER 8
M  POLY_CHG 0
M  POLY_PROPERTIES ALPHA_AA L_AA PROTEIN AROMATIC POLYMER 
M  END

$$$$



 32 32  0  0  0  0  0  0  0  0999 V2000
   -1.7421    0.7422    2.0132 H   0  0  0  1  0  0  0  0  0  0  0  0
   -2.6053    2.0593    3.4077 C   0  0  0  1  0  0  0  0  0  0  0  0
   -3.5019    1.4224    1.1867 N   0  0  0  1  0  0  0  0  0  0  0  0
   -2.2973    1.6562    1.9753 C   0  0  0  1  0  0  0  0  0  0  0  0
   -3.6511    2.5964    3.7227 O   0  0  0  1  0  0  0  0  0  0  0  0
   -1.6992    1.8177    4.3594 N   0  0  0  1  0  0  0  0  0  0  0  0
   -3.7476    2.1003    0.5230 H   0  0  0  1  0  0  0  0  0  0  0  0
   -4.2956    0.3538    1.3012 C   0  0  0  1  0  0  0  0  0  0  0  0
   -1.9510    2.1054    5.7635 C   0  0  0  1  0  0  0  0  0  0  0  0
   -5.5484    0.3693    0.4472 C   0  0  0  1  0  0  0  0  0  0  0  0
   -4.0426   -0.5918    2.0464 O   0  0  0  1  0  0  0  0  0  0  0  0
   -0.8350    1.4333    4.1029 H   0  0  0  1  0  0  0  0  0  0  0  0
   -3.0041    2.2052    5.9244 H   0  0  0  1  0  0  0  0  0  0  0  0
   -1.4612    3.0175    6.0338 H   0  0  0  1  0  0  0  0  0  0  0  0
   -1.5728    1.3051    6.3647 H   0  0  0  1  0  0  0  0  0  0  0  0
   -5.8535    1.3810    0.2789 H   0  0  0  1  0  0  0  0  0  0  0  0
   -6.3301   -0.1594    0.9515 H   0  0  0  1  0  0  0  0  0  0  0  0
   -5.3459   -0.1027   -0.4915 H   0  0  0  1  0  0  0  0  0  0  0  0
   -4.4059    8.2409    0.3740 I   0  0  0  1  0  0  0  0  0  0  0  0
   -3.4171    6.4273    0.6924 C   0  0  0  1  0  0  0  0  0  0  0  0
   -2.5646    6.2828    1.7759 C   0  0  0  1  0  0  0  0  0  0  0  0
   -1.9069    5.0850    1.9830 C   0  0  0  1  0  0  0  0  0  0  0  0
   -2.1039    4.0264    1.1101 C   0  0  0  1  0  0  0  0  0  0  0  0
   -2.9538    4.1702    0.0297 C   0  0  0  1  0  0  0  0  0  0  0  0
   -3.6134    5.3716   -0.1778 C   0  0  0  1  0  0  0  0  0  0  0  0
   -1.4177    2.6926    1.2883 C   0  0  0  1  0  0  0  0  0  0  0  0
   -2.4200    7.0758    2.4331 H   0  0  0  1  0  0  0  0  0  0  0  0
   -1.2643    4.9780    2.7937 H   0  0  0  1  0  0  0  0  0  0  0  0
   -3.0984    3.3772   -0.6274 H   0  0  0  1  0  0  0  0  0  0  0  0
   -4.2560    5.4787   -0.9885 H   0  0  0  1  0  0  0  0  0  0  0  0
   -1.1420    2.3199    0.3239 H   0  0  0  1  0  0  0  0  0  0  0  0
   -0.5380    2.8385    1.8797 H   0  0  0  1  0  0  0  0  0  0  0  0
  1  4  1  0  0  0  0
  2  4  1  0  0  0  0
  2  5  2  0  0  0  0
  2  6  1  0  0  0  0
  3  4  1  0  0  0  0
  3  7  1  0  0  0  0
  3  8  1  0  0  0  0
  4 26  1  0  0  0  0
  6  9  1  0  0  0  0
  6 12  1  0  0  0  0
  8 10  1  0  0  0  0
  8 11  2  0  0  0  0
  9 13  1  0  0  0  0
  9 14  1  0  0  0  0
  9 15  1  0  0  0  0
 10 16  1  0  0  0  0
 10 17  1  0  0  0  0
 10 18  1  0  0  0  0
 19 20  1  0  0  0  0
 20 21  4  0  0  0  0
 20 25  4  0  0  0  0
 21 22  4  0  0  0  0
 21 27  1  0  0  0  0
 22 23  4  0  0  0  0
 22 28  1  0  0  0  0
 23 24  4  0  0  0  0
 23 26  1  0  0  0  0
 24 25  4  0  0  0  0
 24 29  1  0  0  0  0
 25 30  1  0  0  0  0
 26 31  1  0  0  0  0
 26 32  1  0  0  0  0
M  END
> <BCLConfClusterSize>
1

> <ConfClashScore>
0 

> <ConfOneFourInteractionScore>
-0.976093 

> <ConfScore>
0.0878726 

> <ConfScorePBest>
0.00378957 

> <ConfTolerance>
0.384616 

> <RosettaParamsInstructions>
M  ROOT 3
M  POLY_N_BB 3
M  POLY_CA_BB 4
M  POLY_C_BB 2
M  POLY_O_BB 5
M  POLY_IGNORE 9 10 11 12 13 14 15 16 17 18 
M  POLY_UPPER 6
M  POLY_LOWER 8
M  POLY_CHG 0
M  POLY_PROPERTIES ALPHA_AA L_AA PROTEIN AROMATIC POLYMER 
M  END

$$$$



 32 32  0  0  0  0  0  0  0  0999 V2000
    0.5120    3.5968    1.3458 H   0  0  0  1  0  0  0  0  0  0  0  0
    0.8305    1.5278    1.3893 C   0  0  0  1  0  0  0  0  0  0  0  0
    0.2137    2.8899   -0.5552 N   0  0  0  1  0  0  0  0  0  0  0  0
    0.0694    2.7385    0.8850 C   0  0  0  1  0  0  0  0  0  0  0  0
    1.3950    1.5480    2.4799 O   0  0  0  1  0  0  0  0  0  0  0  0
    0.8683    0.4361    0.6091 N   0  0  0  1  0  0  0  0  0  0  0  0
   -0.0258    2.1379   -1.1362 H   0  0  0  1  0  0  0  0  0  0  0  0
    0.6614    4.0184   -1.1128 C   0  0  0  1  0  0  0  0  0  0  0  0
    1.6917   -0.7203    0.9294 C   0  0  0  1  0  0  0  0  0  0  0  0
    0.8650    3.9753   -2.6148 C   0  0  0  1  0  0  0  0  0  0  0  0
    0.8985    5.0355   -0.4665 O   0  0  0  1  0  0  0  0  0  0  0  0
    0.3223    0.4171   -0.2045 H   0  0  0  1  0  0  0  0  0  0  0  0
    2.5385   -0.4076    1.5040 H   0  0  0  1  0  0  0  0  0  0  0  0
    2.0263   -1.1815    0.0237 H   0  0  0  1  0  0  0  0  0  0  0  0
    1.1159   -1.4219    1.4960 H   0  0  0  1  0  0  0  0  0  0  0  0
    0.2149    4.6841   -3.0838 H   0  0  0  1  0  0  0  0  0  0  0  0
    0.6420    2.9934   -2.9767 H   0  0  0  1  0  0  0  0  0  0  0  0
    1.8816    4.2181   -2.8438 H   0  0  0  1  0  0  0  0  0  0  0  0
   -4.4032    8.2433    0.3789 I   0  0  0  1  0  0  0  0  0  0  0  0
   -3.4175    6.4271    0.6918 C   0  0  0  1  0  0  0  0  0  0  0  0
   -2.5641    6.2783    1.7740 C   0  0  0  1  0  0  0  0  0  0  0  0
   -1.9084    5.0788    1.9774 C   0  0  0  1  0  0  0  0  0  0  0  0
   -2.1083    4.0227    1.1021 C   0  0  0  1  0  0  0  0  0  0  0  0
   -2.9591    4.1708    0.0229 C   0  0  0  1  0  0  0  0  0  0  0  0
   -3.6167    5.3740   -0.1809 C   0  0  0  1  0  0  0  0  0  0  0  0
   -1.3965    2.7096    1.3270 C   0  0  0  1  0  0  0  0  0  0  0  0
   -2.4173    7.0693    2.4330 H   0  0  0  1  0  0  0  0  0  0  0  0
   -1.2651    4.9685    2.7871 H   0  0  0  1  0  0  0  0  0  0  0  0
   -3.1058    3.3797   -0.6360 H   0  0  0  1  0  0  0  0  0  0  0  0
   -4.2600    5.4843   -0.9906 H   0  0  0  1  0  0  0  0  0  0  0  0
   -1.4330    2.4768    2.3707 H   0  0  0  1  0  0  0  0  0  0  0  0
   -1.9042    1.9477    0.7732 H   0  0  0  1  0  0  0  0  0  0  0  0
  1  4  1  0  0  0  0
  2  4  1  0  0  0  0
  2  5  2  0  0  0  0
  2  6  1  0  0  0  0
  3  4  1  0  0  0  0
  3  7  1  0  0  0  0
  3  8  1  0  0  0  0
  4 26  1  0  0  0  0
  6  9  1  0  0  0  0
  6 12  1  0  0  0  0
  8 10  1  0  0  0  0
  8 11  2  0  0  0  0
  9 13  1  0  0  0  0
  9 14  1  0  0  0  0
  9 15  1  0  0  0  0
 10 16  1  0  0  0  0
 10 17  1  0  0  0  0
 10 18  1  0  0  0  0
 19 20  1  0  0  0  0
 20 21  4  0  0  0  0
 20 25  4  0  0  0  0
 21 22  4  0  0  0  0
 21 27  1  0  0  0  0
 22 23  4  0  0  0  0
 22 28  1  0  0  0  0
 23 24  4  0  0  0  0
 23 26  1  0  0  0  0
 24 25  4  0  0  0  0
 24 29  1  0  0  0  0
 25 30  1  0  0  0  0
 26 31  1  0  0  0  0
 26 32  1  0  0  0  0
M  END
> <BCLConfClusterSize>
1

> <ConfClashScore>
0 

> <ConfOneFourInteractionScore>
-0.965014 

> <ConfScore>
0.0896834 

> <ConfScorePBest>
0.00376109 

> <ConfTolerance>
0.384763 

> <RosettaParamsInstructions>
M  ROOT 3
M  POLY_N_BB 3
M  POLY_CA_BB 4
M  POLY_C_BB 2
M  POLY_O_BB 5
M  POLY_IGNORE 9 10 11 12 13 14 15 16 17 18 
M  POLY_UPPER 6
M  POLY_LOWER 8
M  POLY_CHG 0
M  POLY_PROPERTIES ALPHA_AA L_AA PROTEIN AROMATIC POLYMER 
M  END

$$$$



 32 32  0  0  0  0  0  0  0  0999 V2000
   -1.3551    1.0653    2.6610 H   0  0  0  1  0  0  0  0  0  0  0  0
   -2.1195    2.7191    3.7404 C   0  0  0  1  0  0  0  0  0  0  0  0
   -3.3342    1.3900    2.1595 N   0  0  0  1  0  0  0  0  0  0  0  0
   -2.0043    1.8928    2.4641 C   0  0  0  1  0  0  0  0  0  0  0  0
   -3.2293    3.1517    4.0483 O   0  0  0  1  0  0  0  0  0  0  0  0
   -1.0120    2.9304    4.4572 N   0  0  0  1  0  0  0  0  0  0  0  0
   -3.9881    1.9723    1.7191 H   0  0  0  1  0  0  0  0  0  0  0  0
   -3.6700    0.1237    2.4817 C   0  0  0  1  0  0  0  0  0  0  0  0
   -0.9925    3.8097    5.6167 C   0  0  0  1  0  0  0  0  0  0  0  0
   -5.0754   -0.3018    2.1035 C   0  0  0  1  0  0  0  0  0  0  0  0
   -2.9000   -0.6495    3.0454 O   0  0  0  1  0  0  0  0  0  0  0  0
   -0.1840    2.4776    4.1930 H   0  0  0  1  0  0  0  0  0  0  0  0
   -1.7377    4.5689    5.5018 H   0  0  0  1  0  0  0  0  0  0  0  0
   -0.0286    4.2663    5.7016 H   0  0  0  1  0  0  0  0  0  0  0  0
   -1.1969    3.2403    6.4993 H   0  0  0  1  0  0  0  0  0  0  0  0
   -5.3875    0.2324    1.2305 H   0  0  0  1  0  0  0  0  0  0  0  0
   -5.7428   -0.0854    2.9113 H   0  0  0  1  0  0  0  0  0  0  0  0
   -5.0876   -1.3525    1.9018 H   0  0  0  1  0  0  0  0  0  0  0  0
   -4.3544    8.2804    0.4670 I   0  0  0  1  0  0  0  0  0  0  0  0
   -3.4287    6.4178    0.6712 C   0  0  0  1  0  0  0  0  0  0  0  0
   -2.5779    6.2812    1.7570 C   0  0  0  1  0  0  0  0  0  0  0  0
   -1.9165    5.0867    1.9710 C   0  0  0  1  0  0  0  0  0  0  0  0
   -2.1081    4.0233    1.1026 C   0  0  0  1  0  0  0  0  0  0  0  0
   -2.9564    4.1592    0.0199 C   0  0  0  1  0  0  0  0  0  0  0  0
   -3.6197    5.3574   -0.1946 C   0  0  0  1  0  0  0  0  0  0  0  0
   -1.3901    2.7156    1.3391 C   0  0  0  1  0  0  0  0  0  0  0  0
   -2.4373    7.0778    2.4107 H   0  0  0  1  0  0  0  0  0  0  0  0
   -1.2751    4.9856    2.7834 H   0  0  0  1  0  0  0  0  0  0  0  0
   -3.0970    3.3627   -0.6338 H   0  0  0  1  0  0  0  0  0  0  0  0
   -4.2610    5.4585   -1.0070 H   0  0  0  1  0  0  0  0  0  0  0  0
   -1.4252    2.1400    0.4379 H   0  0  0  1  0  0  0  0  0  0  0  0
   -0.3713    2.9268    1.5887 H   0  0  0  1  0  0  0  0  0  0  0  0
  1  4  1  0  0  0  0
  2  4  1  0  0  0  0
  2  5  2  0  0  0  0
  2  6  1  0  0  0  0
  3  4  1  0  0  0  0
  3  7  1  0  0  0  0
  3  8  1  0  0  0  0
  4 26  1  0  0  0  0
  6  9  1  0  0  0  0
  6 12  1  0  0  0  0
  8 10  1  0  0  0  0
  8 11  2  0  0  0  0
  9 13  1  0  0  0  0
  9 14  1  0  0  0  0
  9 15  1  0  0  0  0
 10 16  1  0  0  0  0
 10 17  1  0  0  0  0
 10 18  1  0  0  0  0
 19 20  1  0  0  0  0
 20 21  4  0  0  0  0
 20 25  4  0  0  0  0
 21 22  4  0  0  0  0
 21 27  1  0  0  0  0
 22 23  4  0  0  0  0
 22 28  1  0  0  0  0
 23 24  4  0  0  0  0
 23 26  1  0  0  0  0
 24 25  4  0  0  0  0
 24 29  1  0  0  0  0
 25 30  1  0  0  0  0
 26 31  1  0  0  0  0
 26 32  1  0  0  0  0
M  END
> <BCLConfClusterSize>
1

> <ConfClashScore>
0 

> <ConfOneFourInteractionScore>
-0.984451 

> <ConfScore>
0.0900183 

> <ConfScorePBest>
0.00373261 

> <ConfTolerance>
0.638646 

> <RosettaParamsInstructions>
M  ROOT 3
M  POLY_N_BB 3
M  POLY_CA_BB 4
M  POLY_C_BB 2
M  POLY_O_BB 5
M  POLY_IGNORE 9 10 11 12 13 14 15 16 17 18 
M  POLY_UPPER 6
M  POLY_LOWER 8
M  POLY_CHG 0
M  POLY_PROPERTIES ALPHA_AA L_AA PROTEIN AROMATIC POLYMER 
M  END

$$$$



 32 32  0  0  0  0  0  0  0  0999 V2000
   -3.0629    1.6691    2.1245 H   0  0  0  1  0  0  0  0  0  0  0  0
   -1.3345    0.5088    2.4918 C   0  0  0  1  0  0  0  0  0  0  0  0
   -2.0468    2.5798    3.6731 N   0  0  0  1  0  0  0  0  0  0  0  0
   -2.0495    1.8517    2.4155 C   0  0  0  1  0  0  0  0  0  0  0  0
   -0.1381    0.4407    2.7211 O   0  0  0  1  0  0  0  0  0  0  0  0
   -2.0995   -0.5683    2.2930 N   0  0  0  1  0  0  0  0  0  0  0  0
   -1.8265    3.5342    3.6437 H   0  0  0  1  0  0  0  0  0  0  0  0
   -2.3234    2.0434    4.8723 C   0  0  0  1  0  0  0  0  0  0  0  0
   -1.5057   -1.8969    2.2956 C   0  0  0  1  0  0  0  0  0  0  0  0
   -2.1917    2.9787    6.0585 C   0  0  0  1  0  0  0  0  0  0  0  0
   -2.6635    0.8702    5.0190 O   0  0  0  1  0  0  0  0  0  0  0  0
   -3.0626   -0.4634    2.1450 H   0  0  0  1  0  0  0  0  0  0  0  0
   -2.0677   -2.5405    1.6515 H   0  0  0  1  0  0  0  0  0  0  0  0
   -1.5169   -2.2903    3.2906 H   0  0  0  1  0  0  0  0  0  0  0  0
   -0.4960   -1.8367    1.9467 H   0  0  0  1  0  0  0  0  0  0  0  0
   -3.0882    3.5537    6.1612 H   0  0  0  1  0  0  0  0  0  0  0  0
   -1.3622    3.6365    5.9033 H   0  0  0  1  0  0  0  0  0  0  0  0
   -2.0317    2.4059    6.9480 H   0  0  0  1  0  0  0  0  0  0  0  0
   -4.4032    8.2433    0.3789 I   0  0  0  1  0  0  0  0  0  0  0  0
   -3.4175    6.4271    0.6918 C   0  0  0  1  0  0  0  0  0  0  0  0
   -2.5641    6.2783    1.7740 C   0  0  0  1  0  0  0  0  0  0  0  0
   -1.9084    5.0788    1.9774 C   0  0  0  1  0  0  0  0  0  0  0  0
   -2.1083    4.0227    1.1021 C   0  0  0  1  0  0  0  0  0  0  0  0
   -2.9591    4.1708    0.0229 C   0  0  0  1  0  0  0  0  0  0  0  0
   -3.6167    5.3740   -0.1809 C   0  0  0  1  0  0  0  0  0  0  0  0
   -1.3965    2.7096    1.3270 C   0  0  0  1  0  0  0  0  0  0  0  0
   -2.4173    7.0693    2.4330 H   0  0  0  1  0  0  0  0  0  0  0  0
   -1.2651    4.9685    2.7871 H   0  0  0  1  0  0  0  0  0  0  0  0
   -3.1058    3.3797   -0.6360 H   0  0  0  1  0  0  0  0  0  0  0  0
   -4.2600    5.4843   -0.9906 H   0  0  0  1  0  0  0  0  0  0  0  0
   -1.4014    2.1581    0.4101 H   0  0  0  1  0  0  0  0  0  0  0  0
   -0.3866    2.9146    1.6151 H   0  0  0  1  0  0  0  0  0  0  0  0
  1  4  1  0  0  0  0
  2  4  1  0  0  0  0
  2  5  2  0  0  0  0
  2  6  1  0  0  0  0
  3  4  1  0  0  0  0
  3  7  1  0  0  0  0
  3  8  1  0  0  0  0
  4 26  1  0  0  0  0
  6  9  1  0  0  0  0
  6 12  1  0  0  0  0
  8 10  1  0  0  0  0
  8 11  2  0  0  0  0
  9 13  1  0  0  0  0
  9 14  1  0  0  0  0
  9 15  1  0  0  0  0
 10 16  1  0  0  0  0
 10 17  1  0  0  0  0
 10 18  1  0  0  0  0
 19 20  1  0  0  0  0
 20 21  4  0  0  0  0
 20 25  4  0  0  0  0
 21 22  4  0  0  0  0
 21 27  1  0  0  0  0
 22 23  4  0  0  0  0
 22 28  1  0  0  0  0
 23 24  4  0  0  0  0
 23 26  1  0  0  0  0
 24 25  4  0  0  0  0
 24 29  1  0  0  0  0
 25 30  1  0  0  0  0
 26 31  1  0  0  0  0
 26 32  1  0  0  0  0
M  END
> <BCLConfClusterSize>
1

> <ConfClashScore>
0 

> <ConfOneFourInteractionScore>
-0.975259 

> <ConfScore>
0.0918761 

> <ConfScorePBest>
0.00370413 

> <ConfTolerance>
0.59088 

> <RosettaParamsInstructions>
M  ROOT 3
M  POLY_N_BB 3
M  POLY_CA_BB 4
M  POLY_C_BB 2
M  POLY_O_BB 5
M  POLY_IGNORE 9 10 11 12 13 14 15 16 17 18 
M  POLY_UPPER 6
M  POLY_LOWER 8
M  POLY_CHG 0
M  POLY_PROPERTIES ALPHA_AA L_AA PROTEIN AROMATIC POLYMER 
M  END

$$$$



 32 32  0  0  0  0  0  0  0  0999 V2000
    0.3445    1.6153    1.2799 H   0  0  0  1  0  0  0  0  0  0  0  0
    0.3043    2.6811   -0.5238 C   0  0  0  1  0  0  0  0  0  0  0  0
    0.8334    3.5661    1.7290 N   0  0  0  1  0  0  0  0  0  0  0  0
    0.0218    2.5884    0.9735 C   0  0  0  1  0  0  0  0  0  0  0  0
    0.8882    3.6497   -0.9814 O   0  0  0  1  0  0  0  0  0  0  0  0
   -0.1945    1.7075   -1.3019 N   0  0  0  1  0  0  0  0  0  0  0  0
    1.0434    4.4282    1.3131 H   0  0  0  1  0  0  0  0  0  0  0  0
    1.2905    3.3152    2.9591 C   0  0  0  1  0  0  0  0  0  0  0  0
   -0.0946    1.7444   -2.7533 C   0  0  0  1  0  0  0  0  0  0  0  0
    2.1934    4.3860    3.5614 C   0  0  0  1  0  0  0  0  0  0  0  0
    1.0119    2.2931    3.5805 O   0  0  0  1  0  0  0  0  0  0  0  0
   -0.6414    0.9454   -0.8778 H   0  0  0  1  0  0  0  0  0  0  0  0
    0.9287    1.8745   -3.0377 H   0  0  0  1  0  0  0  0  0  0  0  0
   -0.6756    2.5602   -3.1299 H   0  0  0  1  0  0  0  0  0  0  0  0
   -0.4634    0.8258   -3.1594 H   0  0  0  1  0  0  0  0  0  0  0  0
    1.7656    4.7411    4.4756 H   0  0  0  1  0  0  0  0  0  0  0  0
    2.2894    5.1996    2.8731 H   0  0  0  1  0  0  0  0  0  0  0  0
    3.1589    3.9688    3.7580 H   0  0  0  1  0  0  0  0  0  0  0  0
   -4.4198    8.2362    0.3925 I   0  0  0  1  0  0  0  0  0  0  0  0
   -3.4203    6.4256    0.6938 C   0  0  0  1  0  0  0  0  0  0  0  0
   -2.5620    6.2780    1.7722 C   0  0  0  1  0  0  0  0  0  0  0  0
   -1.8972    5.0822    1.9680 C   0  0  0  1  0  0  0  0  0  0  0  0
   -2.0930    4.0286    1.0888 C   0  0  0  1  0  0  0  0  0  0  0  0
   -2.9488    4.1755    0.0135 C   0  0  0  1  0  0  0  0  0  0  0  0
   -3.6155    5.3749   -0.1827 C   0  0  0  1  0  0  0  0  0  0  0  0
   -1.4419    2.6948    1.3692 C   0  0  0  1  0  0  0  0  0  0  0  0
   -2.4182    7.0672    2.4341 H   0  0  0  1  0  0  0  0  0  0  0  0
   -1.2501    4.9729    2.7748 H   0  0  0  1  0  0  0  0  0  0  0  0
   -3.0926    3.3862   -0.6483 H   0  0  0  1  0  0  0  0  0  0  0  0
   -4.2626    5.4842   -0.9895 H   0  0  0  1  0  0  0  0  0  0  0  0
   -1.5143    2.5065    2.4200 H   0  0  0  1  0  0  0  0  0  0  0  0
   -1.9841    1.9438    0.8336 H   0  0  0  1  0  0  0  0  0  0  0  0
  1  4  1  0  0  0  0
  2  4  1  0  0  0  0
  2  5  2  0  0  0  0
  2  6  1  0  0  0  0
  3  4  1  0  0  0  0
  3  7  1  0  0  0  0
  3  8  1  0  0  0  0
  4 26  1  0  0  0  0
  6  9  1  0  0  0  0
  6 12  1  0  0  0  0
  8 10  1  0  0  0  0
  8 11  2  0  0  0  0
  9 13  1  0  0  0  0
  9 14  1  0  0  0  0
  9 15  1  0  0  0  0
 10 16  1  0  0  0  0
 10 17  1  0  0  0  0
 10 18  1  0  0  0  0
 19 20  1  0  0  0  0
 20 21  4  0  0  0  0
 20 25  4  0  0  0  0
 21 22  4  0  0  0  0
 21 27  1  0  0  0  0
 22 23  4  0  0  0  0
 22 28  1  0  0  0  0
 23 24  4  0  0  0  0
 23 26  1  0  0  0  0
 24 25  4  0  0  0  0
 24 29  1  0  0  0  0
 25 30  1  0  0  0  0
 26 31  1  0  0  0  0
 26 32  1  0  0  0  0
M  END
> <BCLConfClusterSize>
1

> <ConfClashScore>
0 

> <ConfOneFourInteractionScore>
-0.980789 

> <ConfScore>
0.100746 

> <ConfScorePBest>
0.00367564 

> <ConfTolerance>
0.521083 

> <RosettaParamsInstructions>
M  ROOT 3
M  POLY_N_BB 3
M  POLY_CA_BB 4
M  POLY_C_BB 2
M  POLY_O_BB 5
M  POLY_IGNORE 9 10 11 12 13 14 15 16 17 18 
M  POLY_UPPER 6
M  POLY_LOWER 8
M  POLY_CHG 0
M  POLY_PROPERTIES ALPHA_AA L_AA PROTEIN AROMATIC POLYMER 
M  END

$$$$



 32 32  0  0  0  0  0  0  0  0999 V2000
    0.3969    3.1968    0.3333 H   0  0  0  1  0  0  0  0  0  0  0  0
    0.6501    3.8164    2.3271 C   0  0  0  1  0  0  0  0  0  0  0  0
    0.7572    1.5452    1.5099 N   0  0  0  1  0  0  0  0  0  0  0  0
    0.1174    2.8355    1.3009 C   0  0  0  1  0  0  0  0  0  0  0  0
    0.3341    3.7233    3.5124 O   0  0  0  1  0  0  0  0  0  0  0  0
    1.4751    4.7871    1.9035 N   0  0  0  1  0  0  0  0  0  0  0  0
    0.4379    0.9968    2.2566 H   0  0  0  1  0  0  0  0  0  0  0  0
    1.7570    1.0473    0.7531 C   0  0  0  1  0  0  0  0  0  0  0  0
    2.2068    5.7437    2.7203 C   0  0  0  1  0  0  0  0  0  0  0  0
    2.3052   -0.3214    1.1071 C   0  0  0  1  0  0  0  0  0  0  0  0
    2.2115    1.6818   -0.1952 O   0  0  0  1  0  0  0  0  0  0  0  0
    1.5986    4.8597    0.9340 H   0  0  0  1  0  0  0  0  0  0  0  0
    1.6500    6.6549    2.7883 H   0  0  0  1  0  0  0  0  0  0  0  0
    3.1586    5.9402    2.2727 H   0  0  0  1  0  0  0  0  0  0  0  0
    2.3498    5.3395    3.7007 H   0  0  0  1  0  0  0  0  0  0  0  0
    1.7059   -1.0771    0.6438 H   0  0  0  1  0  0  0  0  0  0  0  0
    2.2832   -0.4504    2.1691 H   0  0  0  1  0  0  0  0  0  0  0  0
    3.3135   -0.4027    0.7583 H   0  0  0  1  0  0  0  0  0  0  0  0
   -4.4282    8.2202    0.3317 I   0  0  0  1  0  0  0  0  0  0  0  0
   -3.4115    6.4323    0.7029 C   0  0  0  1  0  0  0  0  0  0  0  0
   -2.5568    6.2769    1.7831 C   0  0  0  1  0  0  0  0  0  0  0  0
   -1.9042    5.0747    1.9808 C   0  0  0  1  0  0  0  0  0  0  0  0
   -2.1085    4.0226    1.1017 C   0  0  0  1  0  0  0  0  0  0  0  0
   -2.9606    4.1774    0.0245 C   0  0  0  1  0  0  0  0  0  0  0  0
   -3.6151    5.3832   -0.1735 C   0  0  0  1  0  0  0  0  0  0  0  0
   -1.4001    2.7066    1.3203 C   0  0  0  1  0  0  0  0  0  0  0  0
   -2.4067    7.0649    2.4450 H   0  0  0  1  0  0  0  0  0  0  0  0
   -1.2599    4.9595    2.7890 H   0  0  0  1  0  0  0  0  0  0  0  0
   -3.1108    3.3893   -0.6372 H   0  0  0  1  0  0  0  0  0  0  0  0
   -4.2595    5.4985   -0.9817 H   0  0  0  1  0  0  0  0  0  0  0  0
   -1.6965    2.3141    2.2706 H   0  0  0  1  0  0  0  0  0  0  0  0
   -1.6943    2.0288    0.5464 H   0  0  0  1  0  0  0  0  0  0  0  0
  1  4  1  0  0  0  0
  2  4  1  0  0  0  0
  2  5  2  0  0  0  0
  2  6  1  0  0  0  0
  3  4  1  0  0  0  0
  3  7  1  0  0  0  0
  3  8  1  0  0  0  0
  4 26  1  0  0  0  0
  6  9  1  0  0  0  0
  6 12  1  0  0  0  0
  8 10  1  0  0  0  0
  8 11  2  0  0  0  0
  9 13  1  0  0  0  0
  9 14  1  0  0  0  0
  9 15  1  0  0  0  0
 10 16  1  0  0  0  0
 10 17  1  0  0  0  0
 10 18  1  0  0  0  0
 19 20  1  0  0  0  0
 20 21  4  0  0  0  0
 20 25  4  0  0  0  0
 21 22  4  0  0  0  0
 21 27  1  0  0  0  0
 22 23  4  0  0  0  0
 22 28  1  0  0  0  0
 23 24  4  0  0  0  0
 23 26  1  0  0  0  0
 24 25  4  0  0  0  0
 24 29  1  0  0  0  0
 25 30  1  0  0  0  0
 26 31  1  0  0  0  0
 26 32  1  0  0  0  0
M  END
> <BCLConfClusterSize>
1

> <ConfClashScore>
0 

> <ConfOneFourInteractionScore>
-0.975259 

> <ConfScore>
0.109627 

> <ConfScorePBest>
0.00364716 

> <ConfTolerance>
0.439026 

> <RosettaParamsInstructions>
M  ROOT 3
M  POLY_N_BB 3
M  POLY_CA_BB 4
M  POLY_C_BB 2
M  POLY_O_BB 5
M  POLY_IGNORE 9 10 11 12 13 14 15 16 17 18 
M  POLY_UPPER 6
M  POLY_LOWER 8
M  POLY_CHG 0
M  POLY_PROPERTIES ALPHA_AA L_AA PROTEIN AROMATIC POLYMER 
M  END

$$$$



 32 32  0  0  0  0  0  0  0  0999 V2000
    0.4227    3.4546    0.5458 H   0  0  0  1  0  0  0  0  0  0  0  0
    0.7470    1.4075    0.9088 C   0  0  0  1  0  0  0  0  0  0  0  0
   -0.5995    2.4225   -0.9276 N   0  0  0  1  0  0  0  0  0  0  0  0
   -0.1431    2.5504    0.4609 C   0  0  0  1  0  0  0  0  0  0  0  0
    0.7084    0.9942    2.0667 O   0  0  0  1  0  0  0  0  0  0  0  0
    1.5763    0.8619    0.0051 N   0  0  0  1  0  0  0  0  0  0  0  0
   -0.2776    3.0665   -1.5925 H   0  0  0  1  0  0  0  0  0  0  0  0
   -1.4386    1.4586   -1.3171 C   0  0  0  1  0  0  0  0  0  0  0  0
    2.4237   -0.2968    0.2446 C   0  0  0  1  0  0  0  0  0  0  0  0
   -1.7301    1.4001   -2.8040 C   0  0  0  1  0  0  0  0  0  0  0  0
   -1.9518    0.6604   -0.5341 O   0  0  0  1  0  0  0  0  0  0  0  0
    1.6140    1.2750   -0.8828 H   0  0  0  1  0  0  0  0  0  0  0  0
    3.1277   -0.3958   -0.5551 H   0  0  0  1  0  0  0  0  0  0  0  0
    1.8176   -1.1769    0.2969 H   0  0  0  1  0  0  0  0  0  0  0  0
    2.9489   -0.1694    1.1681 H   0  0  0  1  0  0  0  0  0  0  0  0
   -2.6061    1.9755   -3.0192 H   0  0  0  1  0  0  0  0  0  0  0  0
   -1.8909    0.3834   -3.0960 H   0  0  0  1  0  0  0  0  0  0  0  0
   -0.8988    1.8002   -3.3461 H   0  0  0  1  0  0  0  0  0  0  0  0
   -4.4032    8.2433    0.3789 I   0  0  0  1  0  0  0  0  0  0  0  0
   -3.4175    6.4271    0.6918 C   0  0  0  1  0  0  0  0  0  0  0  0
   -2.5641    6.2783    1.7740 C   0  0  0  1  0  0  0  0  0  0  0  0
   -1.9084    5.0788    1.9774 C   0  0  0  1  0  0  0  0  0  0  0  0
   -2.1083    4.0227    1.1021 C   0  0  0  1  0  0  0  0  0  0  0  0
   -2.9591    4.1708    0.0229 C   0  0  0  1  0  0  0  0  0  0  0  0
   -3.6167    5.3740   -0.1809 C   0  0  0  1  0  0  0  0  0  0  0  0
   -1.3965    2.7096    1.3270 C   0  0  0  1  0  0  0  0  0  0  0  0
   -2.4173    7.0693    2.4330 H   0  0  0  1  0  0  0  0  0  0  0  0
   -1.2651    4.9685    2.7871 H   0  0  0  1  0  0  0  0  0  0  0  0
   -3.1058    3.3797   -0.6360 H   0  0  0  1  0  0  0  0  0  0  0  0
   -4.2600    5.4843   -0.9906 H   0  0  0  1  0  0  0  0  0  0  0  0
   -1.1093    2.6498    2.3560 H   0  0  0  1  0  0  0  0  0  0  0  0
   -2.0723    1.9123    1.0979 H   0  0  0  1  0  0  0  0  0  0  0  0
  1  4  1  0  0  0  0
  2  4  1  0  0  0  0
  2  5  2  0  0  0  0
  2  6  1  0  0  0  0
  3  4  1  0  0  0  0
  3  7  1  0  0  0  0
  3  8  1  0  0  0  0
  4 26  1  0  0  0  0
  6  9  1  0  0  0  0
  6 12  1  0  0  0  0
  8 10  1  0  0  0  0
  8 11  2  0  0  0  0
  9 13  1  0  0  0  0
  9 14  1  0  0  0  0
  9 15  1  0  0  0  0
 10 16  1  0  0  0  0
 10 17  1  0  0  0  0
 10 18  1  0  0  0  0
 19 20  1  0  0  0  0
 20 21  4  0  0  0  0
 20 25  4  0  0  0  0
 21 22  4  0  0  0  0
 21 27  1  0  0  0  0
 22 23  4  0  0  0  0
 22 28  1  0  0  0  0
 23 24  4  0  0  0  0
 23 26  1  0  0  0  0
 24 25  4  0  0  0  0
 24 29  1  0  0  0  0
 25 30  1  0  0  0  0
 26 31  1  0  0  0  0
 26 32  1  0  0  0  0
M  END
> <BCLConfClusterSize>
1

> <ConfClashScore>
0 

> <ConfOneFourInteractionScore>
-0.953096 

> <ConfScore>
0.109797 

> <ConfScorePBest>
0.00361868 

> <ConfTolerance>
0.30967 

> <RosettaParamsInstructions>
M  ROOT 3
M  POLY_N_BB 3
M  POLY_CA_BB 4
M  POLY_C_BB 2
M  POLY_O_BB 5
M  POLY_IGNORE 9 10 11 12 13 14 15 16 17 18 
M  POLY_UPPER 6
M  POLY_LOWER 8
M  POLY_CHG 0
M  POLY_PROPERTIES ALPHA_AA L_AA PROTEIN AROMATIC POLYMER 
M  END

$$$$



 32 32  0  0  0  0  0  0  0  0999 V2000
   -0.1669    2.5849   -0.4199 H   0  0  0  1  0  0  0  0  0  0  0  0
    0.9403    3.8224    0.8609 C   0  0  0  1  0  0  0  0  0  0  0  0
    0.6870    1.3872    1.0343 N   0  0  0  1  0  0  0  0  0  0  0  0
    0.0184    2.6405    0.6325 C   0  0  0  1  0  0  0  0  0  0  0  0
    1.1611    4.2455    1.9838 O   0  0  0  1  0  0  0  0  0  0  0  0
    1.4853    4.3588   -0.2425 N   0  0  0  1  0  0  0  0  0  0  0  0
    1.3670    1.4189    1.7393 H   0  0  0  1  0  0  0  0  0  0  0  0
    0.3973    0.2112    0.4703 C   0  0  0  1  0  0  0  0  0  0  0  0
    2.2537    5.5914   -0.1528 C   0  0  0  1  0  0  0  0  0  0  0  0
    1.0228   -1.0052    1.1249 C   0  0  0  1  0  0  0  0  0  0  0  0
   -0.3223    0.1034   -0.5089 O   0  0  0  1  0  0  0  0  0  0  0  0
    1.3655    3.9193   -1.1101 H   0  0  0  1  0  0  0  0  0  0  0  0
    1.8764    6.1899    0.6498 H   0  0  0  1  0  0  0  0  0  0  0  0
    2.1679    6.1325   -1.0719 H   0  0  0  1  0  0  0  0  0  0  0  0
    3.2819    5.3580    0.0296 H   0  0  0  1  0  0  0  0  0  0  0  0
    0.6431   -1.1104    2.1197 H   0  0  0  1  0  0  0  0  0  0  0  0
    2.0854   -0.8842    1.1599 H   0  0  0  1  0  0  0  0  0  0  0  0
    0.7814   -1.8793    0.5569 H   0  0  0  1  0  0  0  0  0  0  0  0
   -4.3836    8.2519    0.3698 I   0  0  0  1  0  0  0  0  0  0  0  0
   -3.4146    6.4279    0.6892 C   0  0  0  1  0  0  0  0  0  0  0  0
   -2.5656    6.2739    1.7741 C   0  0  0  1  0  0  0  0  0  0  0  0
   -1.9210    5.0692    1.9819 C   0  0  0  1  0  0  0  0  0  0  0  0
   -2.1275    4.0131    1.1082 C   0  0  0  1  0  0  0  0  0  0  0  0
   -2.9740    4.1663    0.0264 C   0  0  0  1  0  0  0  0  0  0  0  0
   -3.6205    5.3747   -0.1819 C   0  0  0  1  0  0  0  0  0  0  0  0
   -1.3340    2.7451    1.3183 C   0  0  0  1  0  0  0  0  0  0  0  0
   -2.4138    7.0651    2.4318 H   0  0  0  1  0  0  0  0  0  0  0  0
   -1.2809    4.9551    2.7936 H   0  0  0  1  0  0  0  0  0  0  0  0
   -3.1258    3.3751   -0.6313 H   0  0  0  1  0  0  0  0  0  0  0  0
   -4.2606    5.4888   -0.9936 H   0  0  0  1  0  0  0  0  0  0  0  0
   -1.1683    2.6418    2.3703 H   0  0  0  1  0  0  0  0  0  0  0  0
   -1.9338    1.9306    0.9695 H   0  0  0  1  0  0  0  0  0  0  0  0
  1  4  1  0  0  0  0
  2  4  1  0  0  0  0
  2  5  2  0  0  0  0
  2  6  1  0  0  0  0
  3  4  1  0  0  0  0
  3  7  1  0  0  0  0
  3  8  1  0  0  0  0
  4 26  1  0  0  0  0
  6  9  1  0  0  0  0
  6 12  1  0  0  0  0
  8 10  1  0  0  0  0
  8 11  2  0  0  0  0
  9 13  1  0  0  0  0
  9 14  1  0  0  0  0
  9 15  1  0  0  0  0
 10 16  1  0  0  0  0
 10 17  1  0  0  0  0
 10 18  1  0  0  0  0
 19 20  1  0  0  0  0
 20 21  4  0  0  0  0
 20 25  4  0  0  0  0
 21 22  4  0  0  0  0
 21 27  1  0  0  0  0
 22 23  4  0  0  0  0
 22 28  1  0  0  0  0
 23 24  4  0  0  0  0
 23 26  1  0  0  0  0
 24 25  4  0  0  0  0
 24 29  1  0  0  0  0
 25 30  1  0  0  0  0
 26 31  1  0  0  0  0
 26 32  1  0  0  0  0
M  END
> <BCLConfClusterSize>
1

> <ConfClashScore>
0 

> <ConfOneFourInteractionScore>
-0.979783 

> <ConfScore>
0.120005 

> <ConfScorePBest>
0.0035902 

> <ConfTolerance>
0.460708 

> <RosettaParamsInstructions>
M  ROOT 3
M  POLY_N_BB 3
M  POLY_CA_BB 4
M  POLY_C_BB 2
M  POLY_O_BB 5
M  POLY_IGNORE 9 10 11 12 13 14 15 16 17 18 
M  POLY_UPPER 6
M  POLY_LOWER 8
M  POLY_CHG 0
M  POLY_PROPERTIES ALPHA_AA L_AA PROTEIN AROMATIC POLYMER 
M  END

$$$$



 32 32  0  0  0  0  0  0  0  0999 V2000
   -2.8597    1.4986    0.4126 H   0  0  0  1  0  0  0  0  0  0  0  0
   -1.5721    0.2023    1.4624 C   0  0  0  1  0  0  0  0  0  0  0  0
   -3.3275    1.6765    2.4084 N   0  0  0  1  0  0  0  0  0  0  0  0
   -2.3428    1.5129    1.3493 C   0  0  0  1  0  0  0  0  0  0  0  0
   -0.3883    0.1203    1.1373 O   0  0  0  1  0  0  0  0  0  0  0  0
   -2.3056   -0.8155    1.9399 N   0  0  0  1  0  0  0  0  0  0  0  0
   -2.9788    1.7156    3.3234 H   0  0  0  1  0  0  0  0  0  0  0  0
   -4.6545    1.7795    2.2748 C   0  0  0  1  0  0  0  0  0  0  0  0
   -1.7370   -2.1305    2.1958 C   0  0  0  1  0  0  0  0  0  0  0  0
   -5.4372    1.9252    3.5653 C   0  0  0  1  0  0  0  0  0  0  0  0
   -5.2215    1.7593    1.1831 O   0  0  0  1  0  0  0  0  0  0  0  0
   -3.2571   -0.6680    2.1224 H   0  0  0  1  0  0  0  0  0  0  0  0
   -0.6958   -2.0316    2.4215 H   0  0  0  1  0  0  0  0  0  0  0  0
   -1.8569   -2.7456    1.3285 H   0  0  0  1  0  0  0  0  0  0  0  0
   -2.2404   -2.5811    3.0256 H   0  0  0  1  0  0  0  0  0  0  0  0
   -5.2254    1.0956    4.2070 H   0  0  0  1  0  0  0  0  0  0  0  0
   -6.4843    1.9483    3.3464 H   0  0  0  1  0  0  0  0  0  0  0  0
   -5.1541    2.8345    4.0530 H   0  0  0  1  0  0  0  0  0  0  0  0
   -4.4032    8.2433    0.3789 I   0  0  0  1  0  0  0  0  0  0  0  0
   -3.4175    6.4271    0.6918 C   0  0  0  1  0  0  0  0  0  0  0  0
   -2.5641    6.2783    1.7740 C   0  0  0  1  0  0  0  0  0  0  0  0
   -1.9084    5.0788    1.9774 C   0  0  0  1  0  0  0  0  0  0  0  0
   -2.1083    4.0227    1.1021 C   0  0  0  1  0  0  0  0  0  0  0  0
   -2.9591    4.1708    0.0229 C   0  0  0  1  0  0  0  0  0  0  0  0
   -3.6167    5.3740   -0.1809 C   0  0  0  1  0  0  0  0  0  0  0  0
   -1.3965    2.7096    1.3270 C   0  0  0  1  0  0  0  0  0  0  0  0
   -2.4173    7.0693    2.4330 H   0  0  0  1  0  0  0  0  0  0  0  0
   -1.2651    4.9685    2.7871 H   0  0  0  1  0  0  0  0  0  0  0  0
   -3.1058    3.3797   -0.6360 H   0  0  0  1  0  0  0  0  0  0  0  0
   -4.2600    5.4843   -0.9906 H   0  0  0  1  0  0  0  0  0  0  0  0
   -0.6866    2.5677    0.5391 H   0  0  0  1  0  0  0  0  0  0  0  0
   -0.8842    2.7562    2.2652 H   0  0  0  1  0  0  0  0  0  0  0  0
  1  4  1  0  0  0  0
  2  4  1  0  0  0  0
  2  5  2  0  0  0  0
  2  6  1  0  0  0  0
  3  4  1  0  0  0  0
  3  7  1  0  0  0  0
  3  8  1  0  0  0  0
  4 26  1  0  0  0  0
  6  9  1  0  0  0  0
  6 12  1  0  0  0  0
  8 10  1  0  0  0  0
  8 11  2  0  0  0  0
  9 13  1  0  0  0  0
  9 14  1  0  0  0  0
  9 15  1  0  0  0  0
 10 16  1  0  0  0  0
 10 17  1  0  0  0  0
 10 18  1  0  0  0  0
 19 20  1  0  0  0  0
 20 21  4  0  0  0  0
 20 25  4  0  0  0  0
 21 22  4  0  0  0  0
 21 27  1  0  0  0  0
 22 23  4  0  0  0  0
 22 28  1  0  0  0  0
 23 24  4  0  0  0  0
 23 26  1  0  0  0  0
 24 25  4  0  0  0  0
 24 29  1  0  0  0  0
 25 30  1  0  0  0  0
 26 31  1  0  0  0  0
 26 32  1  0  0  0  0
M  END
> <BCLConfClusterSize>
1

> <ConfClashScore>
0 

> <ConfOneFourInteractionScore>
-0.95996 

> <ConfScore>
0.120316 

> <ConfScorePBest>
0.00356172 

> <ConfTolerance>
0.417858 

> <RosettaParamsInstructions>
M  ROOT 3
M  POLY_N_BB 3
M  POLY_CA_BB 4
M  POLY_C_BB 2
M  POLY_O_BB 5
M  POLY_IGNORE 9 10 11 12 13 14 15 16 17 18 
M  POLY_UPPER 6
M  POLY_LOWER 8
M  POLY_CHG 0
M  POLY_PROPERTIES ALPHA_AA L_AA PROTEIN AROMATIC POLYMER 
M  END

$$$$



 32 32  0  0  0  0  0  0  0  0999 V2000
   -0.1276    1.6026    2.5727 H   0  0  0  1  0  0  0  0  0  0  0  0
    0.7866    3.4699    2.2726 C   0  0  0  1  0  0  0  0  0  0  0  0
   -1.1458    2.9644    3.7304 N   0  0  0  1  0  0  0  0  0  0  0  0
   -0.4488    2.6206    2.5000 C   0  0  0  1  0  0  0  0  0  0  0  0
    0.8374    4.6382    2.6548 O   0  0  0  1  0  0  0  0  0  0  0  0
    1.8014    2.8644    1.6358 N   0  0  0  1  0  0  0  0  0  0  0  0
   -1.0698    3.8776    4.0777 H   0  0  0  1  0  0  0  0  0  0  0  0
   -1.8856    2.0782    4.4030 C   0  0  0  1  0  0  0  0  0  0  0  0
    3.1166    3.4488    1.4196 C   0  0  0  1  0  0  0  0  0  0  0  0
   -2.5701    2.6339    5.6532 C   0  0  0  1  0  0  0  0  0  0  0  0
   -2.0931    0.9220    4.0370 O   0  0  0  1  0  0  0  0  0  0  0  0
    1.6448    1.9607    1.2904 H   0  0  0  1  0  0  0  0  0  0  0  0
    3.3721    4.0709    2.2518 H   0  0  0  1  0  0  0  0  0  0  0  0
    3.1027    4.0369    0.5259 H   0  0  0  1  0  0  0  0  0  0  0  0
    3.8418    2.6681    1.3222 H   0  0  0  1  0  0  0  0  0  0  0  0
   -3.2615    3.4002    5.3710 H   0  0  0  1  0  0  0  0  0  0  0  0
   -1.8324    3.0440    6.3109 H   0  0  0  1  0  0  0  0  0  0  0  0
   -3.0950    1.8462    6.1520 H   0  0  0  1  0  0  0  0  0  0  0  0
   -4.4032    8.2433    0.3789 I   0  0  0  1  0  0  0  0  0  0  0  0
   -3.4175    6.4271    0.6918 C   0  0  0  1  0  0  0  0  0  0  0  0
   -2.5641    6.2783    1.7740 C   0  0  0  1  0  0  0  0  0  0  0  0
   -1.9084    5.0788    1.9774 C   0  0  0  1  0  0  0  0  0  0  0  0
   -2.1083    4.0227    1.1021 C   0  0  0  1  0  0  0  0  0  0  0  0
   -2.9591    4.1708    0.0229 C   0  0  0  1  0  0  0  0  0  0  0  0
   -3.6167    5.3740   -0.1809 C   0  0  0  1  0  0  0  0  0  0  0  0
   -1.3965    2.7096    1.3270 C   0  0  0  1  0  0  0  0  0  0  0  0
   -2.4173    7.0693    2.4330 H   0  0  0  1  0  0  0  0  0  0  0  0
   -1.2651    4.9685    2.7871 H   0  0  0  1  0  0  0  0  0  0  0  0
   -3.1058    3.3797   -0.6360 H   0  0  0  1  0  0  0  0  0  0  0  0
   -4.2600    5.4843   -0.9906 H   0  0  0  1  0  0  0  0  0  0  0  0
   -2.1461    1.9583    1.4633 H   0  0  0  1  0  0  0  0  0  0  0  0
   -0.8328    2.4954    0.4431 H   0  0  0  1  0  0  0  0  0  0  0  0
  1  4  1  0  0  0  0
  2  4  1  0  0  0  0
  2  5  2  0  0  0  0
  2  6  1  0  0  0  0
  3  4  1  0  0  0  0
  3  7  1  0  0  0  0
  3  8  1  0  0  0  0
  4 26  1  0  0  0  0
  6  9  1  0  0  0  0
  6 12  1  0  0  0  0
  8 10  1  0  0  0  0
  8 11  2  0  0  0  0
  9 13  1  0  0  0  0
  9 14  1  0  0  0  0
  9 15  1  0  0  0  0
 10 16  1  0  0  0  0
 10 17  1  0  0  0  0
 10 18  1  0  0  0  0
 19 20  1  0  0  0  0
 20 21  4  0  0  0  0
 20 25  4  0  0  0  0
 21 22  4  0  0  0  0
 21 27  1  0  0  0  0
 22 23  4  0  0  0  0
 22 28  1  0  0  0  0
 23 24  4  0  0  0  0
 23 26  1  0  0  0  0
 24 25  4  0  0  0  0
 24 29  1  0  0  0  0
 25 30  1  0  0  0  0
 26 31  1  0  0  0  0
 26 32  1  0  0  0  0
M  END
> <BCLConfClusterSize>
1

> <ConfClashScore>
0 

> <ConfOneFourInteractionScore>
-0.973348 

> <ConfScore>
0.125771 

> <ConfScorePBest>
0.00353324 

> <ConfTolerance>
0.667124 

> <RosettaParamsInstructions>
M  ROOT 3
M  POLY_N_BB 3
M  POLY_CA_BB 4
M  POLY_C_BB 2
M  POLY_O_BB 5
M  POLY_IGNORE 9 10 11 12 13 14 15 16 17 18 
M  POLY_UPPER 6
M  POLY_LOWER 8
M  POLY_CHG 0
M  POLY_PROPERTIES ALPHA_AA L_AA PROTEIN AROMATIC POLYMER 
M  END

$$$$



 32 32  0  0  0  0  0  0  0  0999 V2000
   -3.1694    1.6428    0.9519 H   0  0  0  1  0  0  0  0  0  0  0  0
   -1.9171    1.1911   -0.6814 C   0  0  0  1  0  0  0  0  0  0  0  0
   -1.7420    0.2965    1.6088 N   0  0  0  1  0  0  0  0  0  0  0  0
   -2.1225    1.4759    0.8066 C   0  0  0  1  0  0  0  0  0  0  0  0
   -2.7088    1.6189   -1.5053 O   0  0  0  1  0  0  0  0  0  0  0  0
   -0.8955    0.3867   -1.0150 N   0  0  0  1  0  0  0  0  0  0  0  0
   -0.9882    0.3706    2.2307 H   0  0  0  1  0  0  0  0  0  0  0  0
   -2.3894   -0.8686    1.5163 C   0  0  0  1  0  0  0  0  0  0  0  0
   -0.6952   -0.0926   -2.3744 C   0  0  0  1  0  0  0  0  0  0  0  0
   -1.7625   -2.0314    2.2607 C   0  0  0  1  0  0  0  0  0  0  0  0
   -3.4289   -1.0081    0.8732 O   0  0  0  1  0  0  0  0  0  0  0  0
   -0.2626    0.1126   -0.3188 H   0  0  0  1  0  0  0  0  0  0  0  0
   -1.1407    0.5933   -3.0642 H   0  0  0  1  0  0  0  0  0  0  0  0
   -1.1506   -1.0546   -2.4839 H   0  0  0  1  0  0  0  0  0  0  0  0
    0.3532   -0.1689   -2.5746 H   0  0  0  1  0  0  0  0  0  0  0  0
   -1.8753   -1.8835    3.3144 H   0  0  0  1  0  0  0  0  0  0  0  0
   -0.7219   -2.0903    2.0184 H   0  0  0  1  0  0  0  0  0  0  0  0
   -2.2479   -2.9410    1.9745 H   0  0  0  1  0  0  0  0  0  0  0  0
   -4.4032    8.2433    0.3789 I   0  0  0  1  0  0  0  0  0  0  0  0
   -3.4175    6.4271    0.6918 C   0  0  0  1  0  0  0  0  0  0  0  0
   -2.5641    6.2783    1.7740 C   0  0  0  1  0  0  0  0  0  0  0  0
   -1.9084    5.0788    1.9774 C   0  0  0  1  0  0  0  0  0  0  0  0
   -2.1083    4.0227    1.1021 C   0  0  0  1  0  0  0  0  0  0  0  0
   -2.9591    4.1708    0.0229 C   0  0  0  1  0  0  0  0  0  0  0  0
   -3.6167    5.3740   -0.1809 C   0  0  0  1  0  0  0  0  0  0  0  0
   -1.3965    2.7096    1.3270 C   0  0  0  1  0  0  0  0  0  0  0  0
   -2.4173    7.0693    2.4330 H   0  0  0  1  0  0  0  0  0  0  0  0
   -1.2651    4.9685    2.7871 H   0  0  0  1  0  0  0  0  0  0  0  0
   -3.1058    3.3797   -0.6360 H   0  0  0  1  0  0  0  0  0  0  0  0
   -4.2600    5.4843   -0.9906 H   0  0  0  1  0  0  0  0  0  0  0  0
   -0.4450    2.7623    0.8404 H   0  0  0  1  0  0  0  0  0  0  0  0
   -1.2528    2.5882    2.3803 H   0  0  0  1  0  0  0  0  0  0  0  0
  1  4  1  0  0  0  0
  2  4  1  0  0  0  0
  2  5  2  0  0  0  0
  2  6  1  0  0  0  0
  3  4  1  0  0  0  0
  3  7  1  0  0  0  0
  3  8  1  0  0  0  0
  4 26  1  0  0  0  0
  6  9  1  0  0  0  0
  6 12  1  0  0  0  0
  8 10  1  0  0  0  0
  8 11  2  0  0  0  0
  9 13  1  0  0  0  0
  9 14  1  0  0  0  0
  9 15  1  0  0  0  0
 10 16  1  0  0  0  0
 10 17  1  0  0  0  0
 10 18  1  0  0  0  0
 19 20  1  0  0  0  0
 20 21  4  0  0  0  0
 20 25  4  0  0  0  0
 21 22  4  0  0  0  0
 21 27  1  0  0  0  0
 22 23  4  0  0  0  0
 22 28  1  0  0  0  0
 23 24  4  0  0  0  0
 23 26  1  0  0  0  0
 24 25  4  0  0  0  0
 24 29  1  0  0  0  0
 25 30  1  0  0  0  0
 26 31  1  0  0  0  0
 26 32  1  0  0  0  0
M  END
> <BCLConfClusterSize>
1

> <ConfClashScore>
0 

> <ConfOneFourInteractionScore>
-0.93346 

> <ConfScore>
0.131891 

> <ConfScorePBest>
0.00350476 

> <ConfTolerance>
0.681352 

> <RosettaParamsInstructions>
M  ROOT 3
M  POLY_N_BB 3
M  POLY_CA_BB 4
M  POLY_C_BB 2
M  POLY_O_BB 5
M  POLY_IGNORE 9 10 11 12 13 14 15 16 17 18 
M  POLY_UPPER 6
M  POLY_LOWER 8
M  POLY_CHG 0
M  POLY_PROPERTIES ALPHA_AA L_AA PROTEIN AROMATIC POLYMER 
M  END

$$$$



 32 32  0  0  0  0  0  0  0  0999 V2000
   -2.7659    1.9654    2.7426 H   0  0  0  1  0  0  0  0  0  0  0  0
   -3.3246    1.1692    0.8808 C   0  0  0  1  0  0  0  0  0  0  0  0
   -1.4236    0.4724    2.2987 N   0  0  0  1  0  0  0  0  0  0  0  0
   -2.2616    1.5843    1.8792 C   0  0  0  1  0  0  0  0  0  0  0  0
   -3.0235    0.3285    0.0352 O   0  0  0  1  0  0  0  0  0  0  0  0
   -4.5308    1.7367    0.9709 N   0  0  0  1  0  0  0  0  0  0  0  0
   -1.3464   -0.3091    1.7126 H   0  0  0  1  0  0  0  0  0  0  0  0
   -0.7551    0.4794    3.4555 C   0  0  0  1  0  0  0  0  0  0  0  0
   -5.5381    1.4778   -0.0470 C   0  0  0  1  0  0  0  0  0  0  0  0
    0.0155   -0.7859    3.7785 C   0  0  0  1  0  0  0  0  0  0  0  0
   -0.7532    1.4398    4.2210 O   0  0  0  1  0  0  0  0  0  0  0  0
   -4.7376    2.3287    1.7241 H   0  0  0  1  0  0  0  0  0  0  0  0
   -5.4950    0.4493   -0.3387 H   0  0  0  1  0  0  0  0  0  0  0  0
   -5.3517    2.0980   -0.8988 H   0  0  0  1  0  0  0  0  0  0  0  0
   -6.5083    1.6958    0.3481 H   0  0  0  1  0  0  0  0  0  0  0  0
   -0.6332   -1.4853    4.2633 H   0  0  0  1  0  0  0  0  0  0  0  0
    0.8331   -0.5495    4.4270 H   0  0  0  1  0  0  0  0  0  0  0  0
    0.3904   -1.2159    2.8733 H   0  0  0  1  0  0  0  0  0  0  0  0
   -4.4032    8.2433    0.3789 I   0  0  0  1  0  0  0  0  0  0  0  0
   -3.4175    6.4271    0.6918 C   0  0  0  1  0  0  0  0  0  0  0  0
   -2.5641    6.2783    1.7740 C   0  0  0  1  0  0  0  0  0  0  0  0
   -1.9084    5.0788    1.9774 C   0  0  0  1  0  0  0  0  0  0  0  0
   -2.1083    4.0227    1.1021 C   0  0  0  1  0  0  0  0  0  0  0  0
   -2.9591    4.1708    0.0229 C   0  0  0  1  0  0  0  0  0  0  0  0
   -3.6167    5.3740   -0.1809 C   0  0  0  1  0  0  0  0  0  0  0  0
   -1.3965    2.7096    1.3270 C   0  0  0  1  0  0  0  0  0  0  0  0
   -2.4173    7.0693    2.4330 H   0  0  0  1  0  0  0  0  0  0  0  0
   -1.2651    4.9685    2.7871 H   0  0  0  1  0  0  0  0  0  0  0  0
   -3.1058    3.3797   -0.6360 H   0  0  0  1  0  0  0  0  0  0  0  0
   -4.2600    5.4843   -0.9906 H   0  0  0  1  0  0  0  0  0  0  0  0
   -0.9946    2.3871    0.3892 H   0  0  0  1  0  0  0  0  0  0  0  0
   -0.5977    2.8813    2.0179 H   0  0  0  1  0  0  0  0  0  0  0  0
  1  4  1  0  0  0  0
  2  4  1  0  0  0  0
  2  5  2  0  0  0  0
  2  6  1  0  0  0  0
  3  4  1  0  0  0  0
  3  7  1  0  0  0  0
  3  8  1  0  0  0  0
  4 26  1  0  0  0  0
  6  9  1  0  0  0  0
  6 12  1  0  0  0  0
  8 10  1  0  0  0  0
  8 11  2  0  0  0  0
  9 13  1  0  0  0  0
  9 14  1  0  0  0  0
  9 15  1  0  0  0  0
 10 16  1  0  0  0  0
 10 17  1  0  0  0  0
 10 18  1  0  0  0  0
 19 20  1  0  0  0  0
 20 21  4  0  0  0  0
 20 25  4  0  0  0  0
 21 22  4  0  0  0  0
 21 27  1  0  0  0  0
 22 23  4  0  0  0  0
 22 28  1  0  0  0  0
 23 24  4  0  0  0  0
 23 26  1  0  0  0  0
 24 25  4  0  0  0  0
 24 29  1  0  0  0  0
 25 30  1  0  0  0  0
 26 31  1  0  0  0  0
 26 32  1  0  0  0  0
M  END
> <BCLConfClusterSize>
1

> <ConfClashScore>
0 

> <ConfOneFourInteractionScore>
-0.990503 

> <ConfScore>
0.133215 

> <ConfScorePBest>
0.00347628 

> <ConfTolerance>
0.5025 

> <RosettaParamsInstructions>
M  ROOT 3
M  POLY_N_BB 3
M  POLY_CA_BB 4
M  POLY_C_BB 2
M  POLY_O_BB 5
M  POLY_IGNORE 9 10 11 12 13 14 15 16 17 18 
M  POLY_UPPER 6
M  POLY_LOWER 8
M  POLY_CHG 0
M  POLY_PROPERTIES ALPHA_AA L_AA PROTEIN AROMATIC POLYMER 
M  END

$$$$



 32 32  0  0  0  0  0  0  0  0999 V2000
    0.3968    3.3656    2.1015 H   0  0  0  1  0  0  0  0  0  0  0  0
    0.7865    1.4872    1.2300 C   0  0  0  1  0  0  0  0  0  0  0  0
    0.4623    3.6523    0.0651 N   0  0  0  1  0  0  0  0  0  0  0  0
    0.0924    2.8447    1.2179 C   0  0  0  1  0  0  0  0  0  0  0  0
    0.4217    0.5711    0.4979 O   0  0  0  1  0  0  0  0  0  0  0  0
    1.8005    1.4104    2.0966 N   0  0  0  1  0  0  0  0  0  0  0  0
    0.1802    3.3805   -0.8332 H   0  0  0  1  0  0  0  0  0  0  0  0
    1.2021    4.7889    0.2327 C   0  0  0  1  0  0  0  0  0  0  0  0
    2.5571    0.1841    2.3010 C   0  0  0  1  0  0  0  0  0  0  0  0
    1.4694    5.5338   -1.0607 C   0  0  0  1  0  0  0  0  0  0  0  0
    1.5966    5.1470    1.3271 O   0  0  0  1  0  0  0  0  0  0  0  0
    2.0432    2.2074    2.6124 H   0  0  0  1  0  0  0  0  0  0  0  0
    2.4598   -0.4434    1.4398 H   0  0  0  1  0  0  0  0  0  0  0  0
    2.1788   -0.3290    3.1604 H   0  0  0  1  0  0  0  0  0  0  0  0
    3.5889    0.4231    2.4532 H   0  0  0  1  0  0  0  0  0  0  0  0
    1.0333    6.5094   -1.0077 H   0  0  0  1  0  0  0  0  0  0  0  0
    1.0382    4.9946   -1.8782 H   0  0  0  1  0  0  0  0  0  0  0  0
    2.5253    5.6230   -1.2090 H   0  0  0  1  0  0  0  0  0  0  0  0
   -4.4307    8.2176    0.3267 I   0  0  0  1  0  0  0  0  0  0  0  0
   -3.4111    6.4326    0.7036 C   0  0  0  1  0  0  0  0  0  0  0  0
   -2.5573    6.2814    1.7851 C   0  0  0  1  0  0  0  0  0  0  0  0
   -1.9027    5.0809    1.9864 C   0  0  0  1  0  0  0  0  0  0  0  0
   -2.1041    4.0263    1.1098 C   0  0  0  1  0  0  0  0  0  0  0  0
   -2.9554    4.1768    0.0313 C   0  0  0  1  0  0  0  0  0  0  0  0
   -3.6119    5.3809   -0.1705 C   0  0  0  1  0  0  0  0  0  0  0  0
   -1.4215    2.6899    1.2816 C   0  0  0  1  0  0  0  0  0  0  0  0
   -2.4093    7.0714    2.4451 H   0  0  0  1  0  0  0  0  0  0  0  0
   -1.2590    4.9689    2.7956 H   0  0  0  1  0  0  0  0  0  0  0  0
   -3.1034    3.3867   -0.6286 H   0  0  0  1  0  0  0  0  0  0  0  0
   -4.2556    5.4929   -0.9796 H   0  0  0  1  0  0  0  0  0  0  0  0
   -1.6922    2.2771    2.2309 H   0  0  0  1  0  0  0  0  0  0  0  0
   -1.7399    2.0304    0.5015 H   0  0  0  1  0  0  0  0  0  0  0  0
  1  4  1  0  0  0  0
  2  4  1  0  0  0  0
  2  5  2  0  0  0  0
  2  6  1  0  0  0  0
  3  4  1  0  0  0  0
  3  7  1  0  0  0  0
  3  8  1  0  0  0  0
  4 26  1  0  0  0  0
  6  9  1  0  0  0  0
  6 12  1  0  0  0  0
  8 10  1  0  0  0  0
  8 11  2  0  0  0  0
  9 13  1  0  0  0  0
  9 14  1  0  0  0  0
  9 15  1  0  0  0  0
 10 16  1  0  0  0  0
 10 17  1  0  0  0  0
 10 18  1  0  0  0  0
 19 20  1  0  0  0  0
 20 21  4  0  0  0  0
 20 25  4  0  0  0  0
 21 22  4  0  0  0  0
 21 27  1  0  0  0  0
 22 23  4  0  0  0  0
 22 28  1  0  0  0  0
 23 24  4  0  0  0  0
 23 26  1  0  0  0  0
 24 25  4  0  0  0  0
 24 29  1  0  0  0  0
 25 30  1  0  0  0  0
 26 31  1  0  0  0  0
 26 32  1  0  0  0  0
M  END
> <BCLConfClusterSize>
1

> <ConfClashScore>
0 

> <ConfOneFourInteractionScore>
-0.979134 

> <ConfScore>
0.142632 

> <ConfScorePBest>
0.0034478 

> <ConfTolerance>
0.59885 

> <RosettaParamsInstructions>
M  ROOT 3
M  POLY_N_BB 3
M  POLY_CA_BB 4
M  POLY_C_BB 2
M  POLY_O_BB 5
M  POLY_IGNORE 9 10 11 12 13 14 15 16 17 18 
M  POLY_UPPER 6
M  POLY_LOWER 8
M  POLY_CHG 0
M  POLY_PROPERTIES ALPHA_AA L_AA PROTEIN AROMATIC POLYMER 
M  END

$$$$



 32 32  0  0  0  0  0  0  0  0999 V2000
   -1.9301    0.7865    2.1026 H   0  0  0  1  0  0  0  0  0  0  0  0
   -1.6235    2.0921    3.7366 C   0  0  0  1  0  0  0  0  0  0  0  0
   -3.6030    1.9828    2.3095 N   0  0  0  1  0  0  0  0  0  0  0  0
   -2.1591    1.8038    2.3423 C   0  0  0  1  0  0  0  0  0  0  0  0
   -0.6186    1.4884    4.1028 O   0  0  0  1  0  0  0  0  0  0  0  0
   -2.2721    2.9852    4.4894 N   0  0  0  1  0  0  0  0  0  0  0  0
   -3.9935    2.5506    1.6127 H   0  0  0  1  0  0  0  0  0  0  0  0
   -4.4147    1.3999    3.1962 C   0  0  0  1  0  0  0  0  0  0  0  0
   -1.7418    3.3677    5.7895 C   0  0  0  1  0  0  0  0  0  0  0  0
   -5.8442    1.9053    3.2125 C   0  0  0  1  0  0  0  0  0  0  0  0
   -4.0446    0.5101    3.9576 O   0  0  0  1  0  0  0  0  0  0  0  0
   -3.1069    3.3835    4.1655 H   0  0  0  1  0  0  0  0  0  0  0  0
   -1.3085    2.5123    6.2643 H   0  0  0  1  0  0  0  0  0  0  0  0
   -2.5336    3.7506    6.3989 H   0  0  0  1  0  0  0  0  0  0  0  0
   -0.9933    4.1215    5.6613 H   0  0  0  1  0  0  0  0  0  0  0  0
   -5.9615    2.6687    2.4719 H   0  0  0  1  0  0  0  0  0  0  0  0
   -6.0689    2.3080    4.1780 H   0  0  0  1  0  0  0  0  0  0  0  0
   -6.5108    1.0961    2.9989 H   0  0  0  1  0  0  0  0  0  0  0  0
   -4.4488    8.2256    0.4369 I   0  0  0  1  0  0  0  0  0  0  0  0
   -3.3967    6.4349    0.6711 C   0  0  0  1  0  0  0  0  0  0  0  0
   -2.5514    6.2854    1.7594 C   0  0  0  1  0  0  0  0  0  0  0  0
   -1.9095    5.0806    1.9758 C   0  0  0  1  0  0  0  0  0  0  0  0
   -2.1154    4.0201    1.1073 C   0  0  0  1  0  0  0  0  0  0  0  0
   -2.9583    4.1689    0.0221 C   0  0  0  1  0  0  0  0  0  0  0  0
   -3.6019    5.3773   -0.1948 C   0  0  0  1  0  0  0  0  0  0  0  0
   -1.4189    2.7013    1.3464 C   0  0  0  1  0  0  0  0  0  0  0  0
   -2.4000    7.0799    2.4132 H   0  0  0  1  0  0  0  0  0  0  0  0
   -1.2722    4.9698    2.7901 H   0  0  0  1  0  0  0  0  0  0  0  0
   -3.1096    3.3744   -0.6317 H   0  0  0  1  0  0  0  0  0  0  0  0
   -4.2393    5.4881   -1.0091 H   0  0  0  1  0  0  0  0  0  0  0  0
   -1.3412    2.1831    0.4135 H   0  0  0  1  0  0  0  0  0  0  0  0
   -0.4389    2.8981    1.7284 H   0  0  0  1  0  0  0  0  0  0  0  0
  1  4  1  0  0  0  0
  2  4  1  0  0  0  0
  2  5  2  0  0  0  0
  2  6  1  0  0  0  0
  3  4  1  0  0  0  0
  3  7  1  0  0  0  0
  3  8  1  0  0  0  0
  4 26  1  0  0  0  0
  6  9  1  0  0  0  0
  6 12  1  0  0  0  0
  8 10  1  0  0  0  0
  8 11  2  0  0  0  0
  9 13  1  0  0  0  0
  9 14  1  0  0  0  0
  9 15  1  0  0  0  0
 10 16  1  0  0  0  0
 10 17  1  0  0  0  0
 10 18  1  0  0  0  0
 19 20  1  0  0  0  0
 20 21  4  0  0  0  0
 20 25  4  0  0  0  0
 21 22  4  0  0  0  0
 21 27  1  0  0  0  0
 22 23  4  0  0  0  0
 22 28  1  0  0  0  0
 23 24  4  0  0  0  0
 23 26  1  0  0  0  0
 24 25  4  0  0  0  0
 24 29  1  0  0  0  0
 25 30  1  0  0  0  0
 26 31  1  0  0  0  0
 26 32  1  0  0  0  0
M  END
> <BCLConfClusterSize>
1

> <ConfClashScore>
0 

> <ConfOneFourInteractionScore>
-0.928132 

> <ConfScore>
0.14289 

> <ConfScorePBest>
0.00341932 

> <ConfTolerance>
0.608414 

> <RosettaParamsInstructions>
M  ROOT 3
M  POLY_N_BB 3
M  POLY_CA_BB 4
M  POLY_C_BB 2
M  POLY_O_BB 5
M  POLY_IGNORE 9 10 11 12 13 14 15 16 17 18 
M  POLY_UPPER 6
M  POLY_LOWER 8
M  POLY_CHG 0
M  POLY_PROPERTIES ALPHA_AA L_AA PROTEIN AROMATIC POLYMER 
M  END

$$$$



 32 32  0  0  0  0  0  0  0  0999 V2000
   -3.1233    1.5246    1.4815 H   0  0  0  1  0  0  0  0  0  0  0  0
   -1.6223    0.4175    2.4462 C   0  0  0  1  0  0  0  0  0  0  0  0
   -2.7817    2.3979    3.3253 N   0  0  0  1  0  0  0  0  0  0  0  0
   -2.2789    1.7439    2.1010 C   0  0  0  1  0  0  0  0  0  0  0  0
   -1.6549   -0.1004    3.5473 O   0  0  0  1  0  0  0  0  0  0  0  0
   -0.9868   -0.1516    1.4106 N   0  0  0  1  0  0  0  0  0  0  0  0
   -2.2024    3.0351    3.7931 H   0  0  0  1  0  0  0  0  0  0  0  0
   -4.0109    2.1488    3.8226 C   0  0  0  1  0  0  0  0  0  0  0  0
   -0.2948   -1.4198    1.5855 C   0  0  0  1  0  0  0  0  0  0  0  0
   -4.4245    2.8659    5.0878 C   0  0  0  1  0  0  0  0  0  0  0  0
   -4.7745    1.3617    3.2650 O   0  0  0  1  0  0  0  0  0  0  0  0
   -0.9885    0.2878    0.5346 H   0  0  0  1  0  0  0  0  0  0  0  0
    0.4336   -1.5391    0.8108 H   0  0  0  1  0  0  0  0  0  0  0  0
   -1.0020   -2.2214    1.5362 H   0  0  0  1  0  0  0  0  0  0  0  0
    0.1926   -1.4316    2.5379 H   0  0  0  1  0  0  0  0  0  0  0  0
   -3.7681    2.5891    5.8862 H   0  0  0  1  0  0  0  0  0  0  0  0
   -5.4278    2.5930    5.3403 H   0  0  0  1  0  0  0  0  0  0  0  0
   -4.3703    3.9231    4.9321 H   0  0  0  1  0  0  0  0  0  0  0  0
   -4.4032    8.2433    0.3789 I   0  0  0  1  0  0  0  0  0  0  0  0
   -3.4175    6.4271    0.6918 C   0  0  0  1  0  0  0  0  0  0  0  0
   -2.5641    6.2783    1.7740 C   0  0  0  1  0  0  0  0  0  0  0  0
   -1.9084    5.0788    1.9774 C   0  0  0  1  0  0  0  0  0  0  0  0
   -2.1083    4.0227    1.1021 C   0  0  0  1  0  0  0  0  0  0  0  0
   -2.9591    4.1708    0.0229 C   0  0  0  1  0  0  0  0  0  0  0  0
   -3.6167    5.3740   -0.1809 C   0  0  0  1  0  0  0  0  0  0  0  0
   -1.3965    2.7096    1.3270 C   0  0  0  1  0  0  0  0  0  0  0  0
   -2.4173    7.0693    2.4330 H   0  0  0  1  0  0  0  0  0  0  0  0
   -1.2651    4.9685    2.7871 H   0  0  0  1  0  0  0  0  0  0  0  0
   -3.1058    3.3797   -0.6360 H   0  0  0  1  0  0  0  0  0  0  0  0
   -4.2600    5.4843   -0.9906 H   0  0  0  1  0  0  0  0  0  0  0  0
   -1.1501    2.2773    0.3797 H   0  0  0  1  0  0  0  0  0  0  0  0
   -0.4995    2.8874    1.8826 H   0  0  0  1  0  0  0  0  0  0  0  0
  1  4  1  0  0  0  0
  2  4  1  0  0  0  0
  2  5  2  0  0  0  0
  2  6  1  0  0  0  0
  3  4  1  0  0  0  0
  3  7  1  0  0  0  0
  3  8  1  0  0  0  0
  4 26  1  0  0  0  0
  6  9  1  0  0  0  0
  6 12  1  0  0  0  0
  8 10  1  0  0  0  0
  8 11  2  0  0  0  0
  9 13  1  0  0  0  0
  9 14  1  0  0  0  0
  9 15  1  0  0  0  0
 10 16  1  0  0  0  0
 10 17  1  0  0  0  0
 10 18  1  0  0  0  0
 19 20  1  0  0  0  0
 20 21  4  0  0  0  0
 20 25  4  0  0  0  0
 21 22  4  0  0  0  0
 21 27  1  0  0  0  0
 22 23  4  0  0  0  0
 22 28  1  0  0  0  0
 23 24  4  0  0  0  0
 23 26  1  0  0  0  0
 24 25  4  0  0  0  0
 24 29  1  0  0  0  0
 25 30  1  0  0  0  0
 26 31  1  0  0  0  0
 26 32  1  0  0  0  0
M  END
> <BCLConfClusterSize>
1

> <ConfClashScore>
0 

> <ConfOneFourInteractionScore>
-0.985807 

> <ConfScore>
0.144474 

> <ConfScorePBest>
0.00339084 

> <ConfTolerance>
0.519135 

> <RosettaParamsInstructions>
M  ROOT 3
M  POLY_N_BB 3
M  POLY_CA_BB 4
M  POLY_C_BB 2
M  POLY_O_BB 5
M  POLY_IGNORE 9 10 11 12 13 14 15 16 17 18 
M  POLY_UPPER 6
M  POLY_LOWER 8
M  POLY_CHG 0
M  POLY_PROPERTIES ALPHA_AA L_AA PROTEIN AROMATIC POLYMER 
M  END

$$$$



 32 32  0  0  0  0  0  0  0  0999 V2000
   -1.8796    1.7909   -0.5305 H   0  0  0  1  0  0  0  0  0  0  0  0
   -0.1359    2.9946   -0.7605 C   0  0  0  1  0  0  0  0  0  0  0  0
   -0.2171    0.8091    0.2511 N   0  0  0  1  0  0  0  0  0  0  0  0
   -0.9969    2.0178    0.0303 C   0  0  0  1  0  0  0  0  0  0  0  0
    0.7915    3.6056   -0.2362 O   0  0  0  1  0  0  0  0  0  0  0  0
   -0.4911    3.1069   -2.0414 N   0  0  0  1  0  0  0  0  0  0  0  0
    0.6577    0.9283    0.6766 H   0  0  0  1  0  0  0  0  0  0  0  0
   -0.5581   -0.4446   -0.0603 C   0  0  0  1  0  0  0  0  0  0  0  0
    0.0967    4.0408   -2.9902 C   0  0  0  1  0  0  0  0  0  0  0  0
    0.4718   -1.5081    0.2675 C   0  0  0  1  0  0  0  0  0  0  0  0
   -1.6343   -0.7367   -0.5800 O   0  0  0  1  0  0  0  0  0  0  0  0
   -1.2014    2.5159   -2.3681 H   0  0  0  1  0  0  0  0  0  0  0  0
    1.0746    3.7038   -3.2639 H   0  0  0  1  0  0  0  0  0  0  0  0
    0.1662    5.0092   -2.5405 H   0  0  0  1  0  0  0  0  0  0  0  0
   -0.5187    4.0960   -3.8637 H   0  0  0  1  0  0  0  0  0  0  0  0
    1.3825   -1.0399    0.5778 H   0  0  0  1  0  0  0  0  0  0  0  0
    0.6561   -2.1054   -0.6010 H   0  0  0  1  0  0  0  0  0  0  0  0
    0.1036   -2.1296    1.0568 H   0  0  0  1  0  0  0  0  0  0  0  0
   -4.4032    8.2433    0.3789 I   0  0  0  1  0  0  0  0  0  0  0  0
   -3.4175    6.4271    0.6918 C   0  0  0  1  0  0  0  0  0  0  0  0
   -2.5641    6.2783    1.7740 C   0  0  0  1  0  0  0  0  0  0  0  0
   -1.9084    5.0788    1.9774 C   0  0  0  1  0  0  0  0  0  0  0  0
   -2.1083    4.0227    1.1021 C   0  0  0  1  0  0  0  0  0  0  0  0
   -2.9591    4.1708    0.0229 C   0  0  0  1  0  0  0  0  0  0  0  0
   -3.6167    5.3740   -0.1809 C   0  0  0  1  0  0  0  0  0  0  0  0
   -1.3965    2.7096    1.3270 C   0  0  0  1  0  0  0  0  0  0  0  0
   -2.4173    7.0693    2.4330 H   0  0  0  1  0  0  0  0  0  0  0  0
   -1.2651    4.9685    2.7871 H   0  0  0  1  0  0  0  0  0  0  0  0
   -3.1058    3.3797   -0.6360 H   0  0  0  1  0  0  0  0  0  0  0  0
   -4.2600    5.4843   -0.9906 H   0  0  0  1  0  0  0  0  0  0  0  0
   -0.5124    2.8953    1.9003 H   0  0  0  1  0  0  0  0  0  0  0  0
   -2.0467    2.0590    1.8737 H   0  0  0  1  0  0  0  0  0  0  0  0
  1  4  1  0  0  0  0
  2  4  1  0  0  0  0
  2  5  2  0  0  0  0
  2  6  1  0  0  0  0
  3  4  1  0  0  0  0
  3  7  1  0  0  0  0
  3  8  1  0  0  0  0
  4 26  1  0  0  0  0
  6  9  1  0  0  0  0
  6 12  1  0  0  0  0
  8 10  1  0  0  0  0
  8 11  2  0  0  0  0
  9 13  1  0  0  0  0
  9 14  1  0  0  0  0
  9 15  1  0  0  0  0
 10 16  1  0  0  0  0
 10 17  1  0  0  0  0
 10 18  1  0  0  0  0
 19 20  1  0  0  0  0
 20 21  4  0  0  0  0
 20 25  4  0  0  0  0
 21 22  4  0  0  0  0
 21 27  1  0  0  0  0
 22 23  4  0  0  0  0
 22 28  1  0  0  0  0
 23 24  4  0  0  0  0
 23 26  1  0  0  0  0
 24 25  4  0  0  0  0
 24 29  1  0  0  0  0
 25 30  1  0  0  0  0
 26 31  1  0  0  0  0
 26 32  1  0  0  0  0
M  END
> <BCLConfClusterSize>
1

> <ConfClashScore>
0 

> <ConfOneFourInteractionScore>
-0.976389 

> <ConfScore>
0.148489 

> <ConfScorePBest>
0.00336236 

> <ConfTolerance>
0.547198 

> <RosettaParamsInstructions>
M  ROOT 3
M  POLY_N_BB 3
M  POLY_CA_BB 4
M  POLY_C_BB 2
M  POLY_O_BB 5
M  POLY_IGNORE 9 10 11 12 13 14 15 16 17 18 
M  POLY_UPPER 6
M  POLY_LOWER 8
M  POLY_CHG 0
M  POLY_PROPERTIES ALPHA_AA L_AA PROTEIN AROMATIC POLYMER 
M  END

$$$$



 32 32  0  0  0  0  0  0  0  0999 V2000
    0.5504    3.0481    2.0692 H   0  0  0  1  0  0  0  0  0  0  0  0
    0.6987    1.4671    0.6853 C   0  0  0  1  0  0  0  0  0  0  0  0
    0.4256    3.8808    0.1916 N   0  0  0  1  0  0  0  0  0  0  0  0
    0.1162    2.8052    1.1219 C   0  0  0  1  0  0  0  0  0  0  0  0
    1.0918    0.6425    1.5094 O   0  0  0  1  0  0  0  0  0  0  0  0
    0.7506    1.2581   -0.6398 N   0  0  0  1  0  0  0  0  0  0  0  0
   -0.3239    4.3044   -0.2766 H   0  0  0  1  0  0  0  0  0  0  0  0
    1.6664    4.3385   -0.0748 C   0  0  0  1  0  0  0  0  0  0  0  0
    1.4286    0.1083   -1.2194 C   0  0  0  1  0  0  0  0  0  0  0  0
    1.8089    5.4684   -1.0693 C   0  0  0  1  0  0  0  0  0  0  0  0
    2.6543    3.8527    0.4739 O   0  0  0  1  0  0  0  0  0  0  0  0
    0.3168    1.9022   -1.2375 H   0  0  0  1  0  0  0  0  0  0  0  0
    2.4689    0.1448   -0.9719 H   0  0  0  1  0  0  0  0  0  0  0  0
    1.3145    0.1262   -2.2832 H   0  0  0  1  0  0  0  0  0  0  0  0
    1.0008   -0.7917   -0.8295 H   0  0  0  1  0  0  0  0  0  0  0  0
    0.8391    5.7837   -1.3930 H   0  0  0  1  0  0  0  0  0  0  0  0
    2.3741    5.1314   -1.9130 H   0  0  0  1  0  0  0  0  0  0  0  0
    2.3145    6.2896   -0.6057 H   0  0  0  1  0  0  0  0  0  0  0  0
   -4.4032    8.2433    0.3789 I   0  0  0  1  0  0  0  0  0  0  0  0
   -3.4175    6.4271    0.6918 C   0  0  0  1  0  0  0  0  0  0  0  0
   -2.5641    6.2783    1.7740 C   0  0  0  1  0  0  0  0  0  0  0  0
   -1.9084    5.0788    1.9774 C   0  0  0  1  0  0  0  0  0  0  0  0
   -2.1083    4.0227    1.1021 C   0  0  0  1  0  0  0  0  0  0  0  0
   -2.9591    4.1708    0.0229 C   0  0  0  1  0  0  0  0  0  0  0  0
   -3.6167    5.3740   -0.1809 C   0  0  0  1  0  0  0  0  0  0  0  0
   -1.3965    2.7096    1.3270 C   0  0  0  1  0  0  0  0  0  0  0  0
   -2.4173    7.0693    2.4330 H   0  0  0  1  0  0  0  0  0  0  0  0
   -1.2651    4.9685    2.7871 H   0  0  0  1  0  0  0  0  0  0  0  0
   -3.1058    3.3797   -0.6360 H   0  0  0  1  0  0  0  0  0  0  0  0
   -4.2600    5.4843   -0.9906 H   0  0  0  1  0  0  0  0  0  0  0  0
   -1.5845    2.3877    2.3300 H   0  0  0  1  0  0  0  0  0  0  0  0
   -1.7882    1.9880    0.6409 H   0  0  0  1  0  0  0  0  0  0  0  0
  1  4  1  0  0  0  0
  2  4  1  0  0  0  0
  2  5  2  0  0  0  0
  2  6  1  0  0  0  0
  3  4  1  0  0  0  0
  3  7  1  0  0  0  0
  3  8  1  0  0  0  0
  4 26  1  0  0  0  0
  6  9  1  0  0  0  0
  6 12  1  0  0  0  0
  8 10  1  0  0  0  0
  8 11  2  0  0  0  0
  9 13  1  0  0  0  0
  9 14  1  0  0  0  0
  9 15  1  0  0  0  0
 10 16  1  0  0  0  0
 10 17  1  0  0  0  0
 10 18  1  0  0  0  0
 19 20  1  0  0  0  0
 20 21  4  0  0  0  0
 20 25  4  0  0  0  0
 21 22  4  0  0  0  0
 21 27  1  0  0  0  0
 22 23  4  0  0  0  0
 22 28  1  0  0  0  0
 23 24  4  0  0  0  0
 23 26  1  0  0  0  0
 24 25  4  0  0  0  0
 24 29  1  0  0  0  0
 25 30  1  0  0  0  0
 26 31  1  0  0  0  0
 26 32  1  0  0  0  0
M  END
> <BCLConfClusterSize>
1

> <ConfClashScore>
0 

> <ConfOneFourInteractionScore>
-0.937067 

> <ConfScore>
0.157408 

> <ConfScorePBest>
0.00333388 

> <ConfTolerance>
0.787179 

> <RosettaParamsInstructions>
M  ROOT 3
M  POLY_N_BB 3
M  POLY_CA_BB 4
M  POLY_C_BB 2
M  POLY_O_BB 5
M  POLY_IGNORE 9 10 11 12 13 14 15 16 17 18 
M  POLY_UPPER 6
M  POLY_LOWER 8
M  POLY_CHG 0
M  POLY_PROPERTIES ALPHA_AA L_AA PROTEIN AROMATIC POLYMER 
M  END

$$$$



 32 32  0  0  0  0  0  0  0  0999 V2000
    0.5489    3.3781    0.8127 H   0  0  0  1  0  0  0  0  0  0  0  0
    0.7193    1.3005    1.0099 C   0  0  0  1  0  0  0  0  0  0  0  0
   -0.2886    2.5108   -0.8679 N   0  0  0  1  0  0  0  0  0  0  0  0
   -0.0596    2.5265    0.5904 C   0  0  0  1  0  0  0  0  0  0  0  0
    0.4871    0.7413    2.0810 O   0  0  0  1  0  0  0  0  0  0  0  0
    1.6690    0.8421    0.1804 N   0  0  0  1  0  0  0  0  0  0  0  0
   -1.1705    2.2243   -1.1851 H   0  0  0  1  0  0  0  0  0  0  0  0
    0.6160    2.8577   -1.7880 C   0  0  0  1  0  0  0  0  0  0  0  0
    2.4256   -0.3695    0.4586 C   0  0  0  1  0  0  0  0  0  0  0  0
    0.1490    2.7822   -3.2374 C   0  0  0  1  0  0  0  0  0  0  0  0
    1.7574    3.2176   -1.5029 O   0  0  0  1  0  0  0  0  0  0  0  0
    1.8599    1.3407   -0.6415 H   0  0  0  1  0  0  0  0  0  0  0  0
    3.3835   -0.3090   -0.0143 H   0  0  0  1  0  0  0  0  0  0  0  0
    1.8936   -1.2168    0.0792 H   0  0  0  1  0  0  0  0  0  0  0  0
    2.5559   -0.4735    1.5155 H   0  0  0  1  0  0  0  0  0  0  0  0
   -0.3293    3.7006   -3.5068 H   0  0  0  1  0  0  0  0  0  0  0  0
   -0.5436    1.9741   -3.3471 H   0  0  0  1  0  0  0  0  0  0  0  0
    0.9923    2.6190   -3.8755 H   0  0  0  1  0  0  0  0  0  0  0  0
   -4.3383    8.2714    0.3548 I   0  0  0  1  0  0  0  0  0  0  0  0
   -3.4422    6.4159    0.7046 C   0  0  0  1  0  0  0  0  0  0  0  0
   -2.5820    6.2725    1.7821 C   0  0  0  1  0  0  0  0  0  0  0  0
   -1.9105    5.0802    1.9766 C   0  0  0  1  0  0  0  0  0  0  0  0
   -2.1014    4.0260    1.0970 C   0  0  0  1  0  0  0  0  0  0  0  0
   -2.9590    4.1688    0.0226 C   0  0  0  1  0  0  0  0  0  0  0  0
   -3.6324    5.3647   -0.1723 C   0  0  0  1  0  0  0  0  0  0  0  0
   -1.3724    2.7207    1.3122 C   0  0  0  1  0  0  0  0  0  0  0  0
   -2.4418    7.0621    2.4443 H   0  0  0  1  0  0  0  0  0  0  0  0
   -1.2621    4.9740    2.7827 H   0  0  0  1  0  0  0  0  0  0  0  0
   -3.0991    3.3792   -0.6396 H   0  0  0  1  0  0  0  0  0  0  0  0
   -4.2808    5.4709   -0.9784 H   0  0  0  1  0  0  0  0  0  0  0  0
   -1.1775    2.6319    2.3605 H   0  0  0  1  0  0  0  0  0  0  0  0
   -2.0274    1.9333    1.0027 H   0  0  0  1  0  0  0  0  0  0  0  0
  1  4  1  0  0  0  0
  2  4  1  0  0  0  0
  2  5  2  0  0  0  0
  2  6  1  0  0  0  0
  3  4  1  0  0  0  0
  3  7  1  0  0  0  0
  3  8  1  0  0  0  0
  4 26  1  0  0  0  0
  6  9  1  0  0  0  0
  6 12  1  0  0  0  0
  8 10  1  0  0  0  0
  8 11  2  0  0  0  0
  9 13  1  0  0  0  0
  9 14  1  0  0  0  0
  9 15  1  0  0  0  0
 10 16  1  0  0  0  0
 10 17  1  0  0  0  0
 10 18  1  0  0  0  0
 19 20  1  0  0  0  0
 20 21  4  0  0  0  0
 20 25  4  0  0  0  0
 21 22  4  0  0  0  0
 21 27  1  0  0  0  0
 22 23  4  0  0  0  0
 22 28  1  0  0  0  0
 23 24  4  0  0  0  0
 23 26  1  0  0  0  0
 24 25  4  0  0  0  0
 24 29  1  0  0  0  0
 25 30  1  0  0  0  0
 26 31  1  0  0  0  0
 26 32  1  0  0  0  0
M  END
> <BCLConfClusterSize>
1

> <ConfClashScore>
0 

> <ConfOneFourInteractionScore>
-0.95996 

> <ConfScore>
0.160953 

> <ConfScorePBest>
0.0033054 

> <ConfTolerance>
0.664716 

> <RosettaParamsInstructions>
M  ROOT 3
M  POLY_N_BB 3
M  POLY_CA_BB 4
M  POLY_C_BB 2
M  POLY_O_BB 5
M  POLY_IGNORE 9 10 11 12 13 14 15 16 17 18 
M  POLY_UPPER 6
M  POLY_LOWER 8
M  POLY_CHG 0
M  POLY_PROPERTIES ALPHA_AA L_AA PROTEIN AROMATIC POLYMER 
M  END

$$$$



 32 32  0  0  0  0  0  0  0  0999 V2000
   -2.8258    1.4283    0.4932 H   0  0  0  1  0  0  0  0  0  0  0  0
   -1.4655    0.2564    1.6291 C   0  0  0  1  0  0  0  0  0  0  0  0
   -3.2654    1.6703    2.5079 N   0  0  0  1  0  0  0  0  0  0  0  0
   -2.3064    1.5102    1.4251 C   0  0  0  1  0  0  0  0  0  0  0  0
   -0.2741    0.3123    1.3364 O   0  0  0  1  0  0  0  0  0  0  0  0
   -2.1033   -0.8120    2.1156 N   0  0  0  1  0  0  0  0  0  0  0  0
   -4.2218    1.6841    2.2945 H   0  0  0  1  0  0  0  0  0  0  0  0
   -2.8873    1.7992    3.7829 C   0  0  0  1  0  0  0  0  0  0  0  0
   -1.4620   -2.1130    2.2342 C   0  0  0  1  0  0  0  0  0  0  0  0
   -3.9871    2.2495    4.7417 C   0  0  0  1  0  0  0  0  0  0  0  0
   -1.7302    1.6470    4.1722 O   0  0  0  1  0  0  0  0  0  0  0  0
   -3.0355   -0.7163    2.4025 H   0  0  0  1  0  0  0  0  0  0  0  0
   -1.2768   -2.5102    1.2581 H   0  0  0  1  0  0  0  0  0  0  0  0
   -2.1029   -2.7784    2.7741 H   0  0  0  1  0  0  0  0  0  0  0  0
   -0.5349   -2.0069    2.7576 H   0  0  0  1  0  0  0  0  0  0  0  0
   -4.2537    3.2636    4.5284 H   0  0  0  1  0  0  0  0  0  0  0  0
   -3.6330    2.1784    5.7489 H   0  0  0  1  0  0  0  0  0  0  0  0
   -4.8452    1.6222    4.6197 H   0  0  0  1  0  0  0  0  0  0  0  0
   -4.4007    8.2454    0.3836 I   0  0  0  1  0  0  0  0  0  0  0  0
   -3.4178    6.4267    0.6912 C   0  0  0  1  0  0  0  0  0  0  0  0
   -2.5636    6.2739    1.7722 C   0  0  0  1  0  0  0  0  0  0  0  0
   -1.9097    5.0728    1.9721 C   0  0  0  1  0  0  0  0  0  0  0  0
   -2.1123    4.0191    1.0945 C   0  0  0  1  0  0  0  0  0  0  0  0
   -2.9639    4.1713    0.0166 C   0  0  0  1  0  0  0  0  0  0  0  0
   -3.6196    5.3760   -0.1838 C   0  0  0  1  0  0  0  0  0  0  0  0
   -1.3776    2.7270    1.3628 C   0  0  0  1  0  0  0  0  0  0  0  0
   -2.4148    7.0632    2.4329 H   0  0  0  1  0  0  0  0  0  0  0  0
   -1.2658    4.9596    2.7809 H   0  0  0  1  0  0  0  0  0  0  0  0
   -3.1127    3.3820   -0.6441 H   0  0  0  1  0  0  0  0  0  0  0  0
   -4.2635    5.4893   -0.9926 H   0  0  0  1  0  0  0  0  0  0  0  0
   -0.6648    2.5716    0.5800 H   0  0  0  1  0  0  0  0  0  0  0  0
   -0.8667    2.8137    2.2990 H   0  0  0  1  0  0  0  0  0  0  0  0
  1  4  1  0  0  0  0
  2  4  1  0  0  0  0
  2  5  2  0  0  0  0
  2  6  1  0  0  0  0
  3  4  1  0  0  0  0
  3  7  1  0  0  0  0
  3  8  1  0  0  0  0
  4 26  1  0  0  0  0
  6  9  1  0  0  0  0
  6 12  1  0  0  0  0
  8 10  1  0  0  0  0
  8 11  2  0  0  0  0
  9 13  1  0  0  0  0
  9 14  1  0  0  0  0
  9 15  1  0  0  0  0
 10 16  1  0  0  0  0
 10 17  1  0  0  0  0
 10 18  1  0  0  0  0
 19 20  1  0  0  0  0
 20 21  4  0  0  0  0
 20 25  4  0  0  0  0
 21 22  4  0  0  0  0
 21 27  1  0  0  0  0
 22 23  4  0  0  0  0
 22 28  1  0  0  0  0
 23 24  4  0  0  0  0
 23 26  1  0  0  0  0
 24 25  4  0  0  0  0
 24 29  1  0  0  0  0
 25 30  1  0  0  0  0
 26 31  1  0  0  0  0
 26 32  1  0  0  0  0
M  END
> <BCLConfClusterSize>
1

> <ConfClashScore>
0 

> <ConfOneFourInteractionScore>
-0.956972 

> <ConfScore>
0.161304 

> <ConfScorePBest>
0.00327691 

> <ConfTolerance>
0.301233 

> <RosettaParamsInstructions>
M  ROOT 3
M  POLY_N_BB 3
M  POLY_CA_BB 4
M  POLY_C_BB 2
M  POLY_O_BB 5
M  POLY_IGNORE 9 10 11 12 13 14 15 16 17 18 
M  POLY_UPPER 6
M  POLY_LOWER 8
M  POLY_CHG 0
M  POLY_PROPERTIES ALPHA_AA L_AA PROTEIN AROMATIC POLYMER 
M  END

$$$$



 32 32  0  0  0  0  0  0  0  0999 V2000
    0.0697    2.2249   -0.1741 H   0  0  0  1  0  0  0  0  0  0  0  0
    0.5204    4.1337    0.6700 C   0  0  0  1  0  0  0  0  0  0  0  0
    0.8384    1.9472    1.7425 N   0  0  0  1  0  0  0  0  0  0  0  0
    0.0300    2.6911    0.7881 C   0  0  0  1  0  0  0  0  0  0  0  0
    0.4837    4.7505   -0.3791 O   0  0  0  1  0  0  0  0  0  0  0  0
    1.0078    4.7446    1.7536 N   0  0  0  1  0  0  0  0  0  0  0  0
    0.4299    1.6598    2.5857 H   0  0  0  1  0  0  0  0  0  0  0  0
    2.1289    1.6398    1.5073 C   0  0  0  1  0  0  0  0  0  0  0  0
    1.5607    6.0899    1.7049 C   0  0  0  1  0  0  0  0  0  0  0  0
    2.7750    0.8325    2.6163 C   0  0  0  1  0  0  0  0  0  0  0  0
    2.7531    1.9663    0.5012 O   0  0  0  1  0  0  0  0  0  0  0  0
    0.9924    4.2703    2.6110 H   0  0  0  1  0  0  0  0  0  0  0  0
    2.3022    6.1992    2.4686 H   0  0  0  1  0  0  0  0  0  0  0  0
    0.7785    6.8027    1.8630 H   0  0  0  1  0  0  0  0  0  0  0  0
    2.0080    6.2570    0.7473 H   0  0  0  1  0  0  0  0  0  0  0  0
    3.6843    0.3970    2.2579 H   0  0  0  1  0  0  0  0  0  0  0  0
    2.1071    0.0570    2.9283 H   0  0  0  1  0  0  0  0  0  0  0  0
    2.9897    1.4739    3.4455 H   0  0  0  1  0  0  0  0  0  0  0  0
   -4.4059    8.2409    0.3740 I   0  0  0  1  0  0  0  0  0  0  0  0
   -3.4171    6.4273    0.6924 C   0  0  0  1  0  0  0  0  0  0  0  0
   -2.5646    6.2828    1.7759 C   0  0  0  1  0  0  0  0  0  0  0  0
   -1.9069    5.0850    1.9830 C   0  0  0  1  0  0  0  0  0  0  0  0
   -2.1039    4.0264    1.1101 C   0  0  0  1  0  0  0  0  0  0  0  0
   -2.9538    4.1702    0.0297 C   0  0  0  1  0  0  0  0  0  0  0  0
   -3.6134    5.3716   -0.1778 C   0  0  0  1  0  0  0  0  0  0  0  0
   -1.4177    2.6926    1.2883 C   0  0  0  1  0  0  0  0  0  0  0  0
   -2.4200    7.0758    2.4331 H   0  0  0  1  0  0  0  0  0  0  0  0
   -1.2643    4.9780    2.7937 H   0  0  0  1  0  0  0  0  0  0  0  0
   -3.0984    3.3772   -0.6274 H   0  0  0  1  0  0  0  0  0  0  0  0
   -4.2560    5.4787   -0.9885 H   0  0  0  1  0  0  0  0  0  0  0  0
   -1.4186    2.4455    2.3294 H   0  0  0  1  0  0  0  0  0  0  0  0
   -1.9665    1.9520    0.7450 H   0  0  0  1  0  0  0  0  0  0  0  0
  1  4  1  0  0  0  0
  2  4  1  0  0  0  0
  2  5  2  0  0  0  0
  2  6  1  0  0  0  0
  3  4  1  0  0  0  0
  3  7  1  0  0  0  0
  3  8  1  0  0  0  0
  4 26  1  0  0  0  0
  6  9  1  0  0  0  0
  6 12  1  0  0  0  0
  8 10  1  0  0  0  0
  8 11  2  0  0  0  0
  9 13  1  0  0  0  0
  9 14  1  0  0  0  0
  9 15  1  0  0  0  0
 10 16  1  0  0  0  0
 10 17  1  0  0  0  0
 10 18  1  0  0  0  0
 19 20  1  0  0  0  0
 20 21  4  0  0  0  0
 20 25  4  0  0  0  0
 21 22  4  0  0  0  0
 21 27  1  0  0  0  0
 22 23  4  0  0  0  0
 22 28  1  0  0  0  0
 23 24  4  0  0  0  0
 23 26  1  0  0  0  0
 24 25  4  0  0  0  0
 24 29  1  0  0  0  0
 25 30  1  0  0  0  0
 26 31  1  0  0  0  0
 26 32  1  0  0  0  0
M  END
> <BCLConfClusterSize>
1

> <ConfClashScore>
0 

> <ConfOneFourInteractionScore>
-0.942345 

> <ConfScore>
0.166736 

> <ConfScorePBest>
0.00324843 

> <ConfTolerance>
0.762182 

> <RosettaParamsInstructions>
M  ROOT 3
M  POLY_N_BB 3
M  POLY_CA_BB 4
M  POLY_C_BB 2
M  POLY_O_BB 5
M  POLY_IGNORE 9 10 11 12 13 14 15 16 17 18 
M  POLY_UPPER 6
M  POLY_LOWER 8
M  POLY_CHG 0
M  POLY_PROPERTIES ALPHA_AA L_AA PROTEIN AROMATIC POLYMER 
M  END

$$$$



 32 32  0  0  0  0  0  0  0  0999 V2000
   -1.8977    0.7339    1.9270 H   0  0  0  1  0  0  0  0  0  0  0  0
   -2.4177    2.0563    3.4876 C   0  0  0  1  0  0  0  0  0  0  0  0
   -3.6558    1.6958    1.4202 N   0  0  0  1  0  0  0  0  0  0  0  0
   -2.3273    1.7100    2.0141 C   0  0  0  1  0  0  0  0  0  0  0  0
   -2.8126    3.1496    3.8580 O   0  0  0  1  0  0  0  0  0  0  0  0
   -2.0383    1.0895    4.3382 N   0  0  0  1  0  0  0  0  0  0  0  0
   -4.3726    2.2054    1.8525 H   0  0  0  1  0  0  0  0  0  0  0  0
   -3.9318    1.0132    0.3079 C   0  0  0  1  0  0  0  0  0  0  0  0
   -2.0507    1.2751    5.7816 C   0  0  0  1  0  0  0  0  0  0  0  0
   -5.3466    1.1559   -0.2186 C   0  0  0  1  0  0  0  0  0  0  0  0
   -3.1044    0.3080   -0.2680 O   0  0  0  1  0  0  0  0  0  0  0  0
   -1.7429    0.2288    3.9746 H   0  0  0  1  0  0  0  0  0  0  0  0
   -1.3132    2.0008    6.0546 H   0  0  0  1  0  0  0  0  0  0  0  0
   -1.8306    0.3450    6.2624 H   0  0  0  1  0  0  0  0  0  0  0  0
   -3.0172    1.6162    6.0888 H   0  0  0  1  0  0  0  0  0  0  0  0
   -5.5720    2.1922   -0.3606 H   0  0  0  1  0  0  0  0  0  0  0  0
   -6.0332    0.7351    0.4859 H   0  0  0  1  0  0  0  0  0  0  0  0
   -5.4329    0.6412   -1.1527 H   0  0  0  1  0  0  0  0  0  0  0  0
   -4.4059    8.2409    0.3740 I   0  0  0  1  0  0  0  0  0  0  0  0
   -3.4171    6.4273    0.6924 C   0  0  0  1  0  0  0  0  0  0  0  0
   -2.5646    6.2828    1.7759 C   0  0  0  1  0  0  0  0  0  0  0  0
   -1.9069    5.0850    1.9830 C   0  0  0  1  0  0  0  0  0  0  0  0
   -2.1039    4.0264    1.1101 C   0  0  0  1  0  0  0  0  0  0  0  0
   -2.9538    4.1702    0.0297 C   0  0  0  1  0  0  0  0  0  0  0  0
   -3.6134    5.3716   -0.1778 C   0  0  0  1  0  0  0  0  0  0  0  0
   -1.4177    2.6926    1.2883 C   0  0  0  1  0  0  0  0  0  0  0  0
   -2.4200    7.0758    2.4331 H   0  0  0  1  0  0  0  0  0  0  0  0
   -1.2643    4.9780    2.7937 H   0  0  0  1  0  0  0  0  0  0  0  0
   -3.0984    3.3772   -0.6274 H   0  0  0  1  0  0  0  0  0  0  0  0
   -4.2560    5.4787   -0.9885 H   0  0  0  1  0  0  0  0  0  0  0  0
   -1.1683    2.2952    0.3267 H   0  0  0  1  0  0  0  0  0  0  0  0
   -0.5240    2.8315    1.8601 H   0  0  0  1  0  0  0  0  0  0  0  0
  1  4  1  0  0  0  0
  2  4  1  0  0  0  0
  2  5  2  0  0  0  0
  2  6  1  0  0  0  0
  3  4  1  0  0  0  0
  3  7  1  0  0  0  0
  3  8  1  0  0  0  0
  4 26  1  0  0  0  0
  6  9  1  0  0  0  0
  6 12  1  0  0  0  0
  8 10  1  0  0  0  0
  8 11  2  0  0  0  0
  9 13  1  0  0  0  0
  9 14  1  0  0  0  0
  9 15  1  0  0  0  0
 10 16  1  0  0  0  0
 10 17  1  0  0  0  0
 10 18  1  0  0  0  0
 19 20  1  0  0  0  0
 20 21  4  0  0  0  0
 20 25  4  0  0  0  0
 21 22  4  0  0  0  0
 21 27  1  0  0  0  0
 22 23  4  0  0  0  0
 22 28  1  0  0  0  0
 23 24  4  0  0  0  0
 23 26  1  0  0  0  0
 24 25  4  0  0  0  0
 24 29  1  0  0  0  0
 25 30  1  0  0  0  0
 26 31  1  0  0  0  0
 26 32  1  0  0  0  0
M  END
> <BCLConfClusterSize>
1

> <ConfClashScore>
0 

> <ConfOneFourInteractionScore>
-0.97007 

> <ConfScore>
0.171462 

> <ConfScorePBest>
0.00321995 

> <ConfTolerance>
0.604172 

> <RosettaParamsInstructions>
M  ROOT 3
M  POLY_N_BB 3
M  POLY_CA_BB 4
M  POLY_C_BB 2
M  POLY_O_BB 5
M  POLY_IGNORE 9 10 11 12 13 14 15 16 17 18 
M  POLY_UPPER 6
M  POLY_LOWER 8
M  POLY_CHG 0
M  POLY_PROPERTIES ALPHA_AA L_AA PROTEIN AROMATIC POLYMER 
M  END

$$$$



 32 32  0  0  0  0  0  0  0  0999 V2000
   -1.1983    2.2060   -0.6749 H   0  0  0  1  0  0  0  0  0  0  0  0
   -0.3544    0.6638    0.4929 C   0  0  0  1  0  0  0  0  0  0  0  0
   -2.7327    1.0611    0.1107 N   0  0  0  1  0  0  0  0  0  0  0  0
   -1.4294    1.7030    0.2408 C   0  0  0  1  0  0  0  0  0  0  0  0
   -0.6393   -0.4684    0.8742 O   0  0  0  1  0  0  0  0  0  0  0  0
    0.9076    1.0650    0.2728 N   0  0  0  1  0  0  0  0  0  0  0  0
   -3.3390    1.0613    0.8806 H   0  0  0  1  0  0  0  0  0  0  0  0
   -3.1325    0.4670   -1.0328 C   0  0  0  1  0  0  0  0  0  0  0  0
    2.0565    0.2403    0.6160 C   0  0  0  1  0  0  0  0  0  0  0  0
   -4.4422   -0.2970   -1.0190 C   0  0  0  1  0  0  0  0  0  0  0  0
   -2.4574    0.5413   -2.0561 O   0  0  0  1  0  0  0  0  0  0  0  0
    1.0605    1.9437   -0.1332 H   0  0  0  1  0  0  0  0  0  0  0  0
    2.5437   -0.0840   -0.2798 H   0  0  0  1  0  0  0  0  0  0  0  0
    1.7293   -0.6128    1.1727 H   0  0  0  1  0  0  0  0  0  0  0  0
    2.7413    0.8115    1.2073 H   0  0  0  1  0  0  0  0  0  0  0  0
   -4.5867   -0.7753   -1.9652 H   0  0  0  1  0  0  0  0  0  0  0  0
   -5.2489    0.3817   -0.8358 H   0  0  0  1  0  0  0  0  0  0  0  0
   -4.4153   -1.0366   -0.2462 H   0  0  0  1  0  0  0  0  0  0  0  0
   -4.4007    8.2454    0.3836 I   0  0  0  1  0  0  0  0  0  0  0  0
   -3.4178    6.4267    0.6912 C   0  0  0  1  0  0  0  0  0  0  0  0
   -2.5636    6.2739    1.7722 C   0  0  0  1  0  0  0  0  0  0  0  0
   -1.9097    5.0728    1.9721 C   0  0  0  1  0  0  0  0  0  0  0  0
   -2.1123    4.0191    1.0945 C   0  0  0  1  0  0  0  0  0  0  0  0
   -2.9639    4.1713    0.0166 C   0  0  0  1  0  0  0  0  0  0  0  0
   -3.6196    5.3760   -0.1838 C   0  0  0  1  0  0  0  0  0  0  0  0
   -1.3776    2.7270    1.3628 C   0  0  0  1  0  0  0  0  0  0  0  0
   -2.4148    7.0632    2.4329 H   0  0  0  1  0  0  0  0  0  0  0  0
   -1.2658    4.9596    2.7809 H   0  0  0  1  0  0  0  0  0  0  0  0
   -3.1127    3.3820   -0.6441 H   0  0  0  1  0  0  0  0  0  0  0  0
   -4.2635    5.4893   -0.9926 H   0  0  0  1  0  0  0  0  0  0  0  0
   -0.3503    2.9634    1.5467 H   0  0  0  1  0  0  0  0  0  0  0  0
   -1.8033    2.2806    2.2370 H   0  0  0  1  0  0  0  0  0  0  0  0
  1  4  1  0  0  0  0
  2  4  1  0  0  0  0
  2  5  2  0  0  0  0
  2  6  1  0  0  0  0
  3  4  1  0  0  0  0
  3  7  1  0  0  0  0
  3  8  1  0  0  0  0
  4 26  1  0  0  0  0
  6  9  1  0  0  0  0
  6 12  1  0  0  0  0
  8 10  1  0  0  0  0
  8 11  2  0  0  0  0
  9 13  1  0  0  0  0
  9 14  1  0  0  0  0
  9 15  1  0  0  0  0
 10 16  1  0  0  0  0
 10 17  1  0  0  0  0
 10 18  1  0  0  0  0
 19 20  1  0  0  0  0
 20 21  4  0  0  0  0
 20 25  4  0  0  0  0
 21 22  4  0  0  0  0
 21 27  1  0  0  0  0
 22 23  4  0  0  0  0
 22 28  1  0  0  0  0
 23 24  4  0  0  0  0
 23 26  1  0  0  0  0
 24 25  4  0  0  0  0
 24 29  1  0  0  0  0
 25 30  1  0  0  0  0
 26 31  1  0  0  0  0
 26 32  1  0  0  0  0
M  END
> <BCLConfClusterSize>
1

> <ConfClashScore>
0 

> <ConfOneFourInteractionScore>
-0.97449 

> <ConfScore>
0.17388 

> <ConfScorePBest>
0.00319147 

> <ConfTolerance>
0.644791 

> <RosettaParamsInstructions>
M  ROOT 3
M  POLY_N_BB 3
M  POLY_CA_BB 4
M  POLY_C_BB 2
M  POLY_O_BB 5
M  POLY_IGNORE 9 10 11 12 13 14 15 16 17 18 
M  POLY_UPPER 6
M  POLY_LOWER 8
M  POLY_CHG 0
M  POLY_PROPERTIES ALPHA_AA L_AA PROTEIN AROMATIC POLYMER 
M  END

$$$$



 32 32  0  0  0  0  0  0  0  0999 V2000
    0.4849    3.7422    0.9409 H   0  0  0  1  0  0  0  0  0  0  0  0
    0.9550    1.6887    0.9805 C   0  0  0  1  0  0  0  0  0  0  0  0
   -0.1357    2.8783   -0.8230 N   0  0  0  1  0  0  0  0  0  0  0  0
    0.0184    2.8331    0.6234 C   0  0  0  1  0  0  0  0  0  0  0  0
    0.8543    0.5888    0.4391 O   0  0  0  1  0  0  0  0  0  0  0  0
    1.8818    1.9627    1.9122 N   0  0  0  1  0  0  0  0  0  0  0  0
    0.1176    3.6959   -1.3003 H   0  0  0  1  0  0  0  0  0  0  0  0
   -0.6152    1.8338   -1.5297 C   0  0  0  1  0  0  0  0  0  0  0  0
    2.8671    0.9812    2.3408 C   0  0  0  1  0  0  0  0  0  0  0  0
   -0.7219    1.9806   -3.0352 C   0  0  0  1  0  0  0  0  0  0  0  0
   -0.9564    0.7919   -0.9716 O   0  0  0  1  0  0  0  0  0  0  0  0
    1.8952    2.8546    2.3180 H   0  0  0  1  0  0  0  0  0  0  0  0
    3.4195    0.6356    1.4920 H   0  0  0  1  0  0  0  0  0  0  0  0
    2.3691    0.1545    2.8027 H   0  0  0  1  0  0  0  0  0  0  0  0
    3.5373    1.4320    3.0426 H   0  0  0  1  0  0  0  0  0  0  0  0
   -1.2475    2.8826   -3.2697 H   0  0  0  1  0  0  0  0  0  0  0  0
   -1.2529    1.1436   -3.4381 H   0  0  0  1  0  0  0  0  0  0  0  0
    0.2594    2.0191   -3.4600 H   0  0  0  1  0  0  0  0  0  0  0  0
   -4.3836    8.2519    0.3698 I   0  0  0  1  0  0  0  0  0  0  0  0
   -3.4146    6.4279    0.6892 C   0  0  0  1  0  0  0  0  0  0  0  0
   -2.5656    6.2739    1.7741 C   0  0  0  1  0  0  0  0  0  0  0  0
   -1.9210    5.0692    1.9819 C   0  0  0  1  0  0  0  0  0  0  0  0
   -2.1275    4.0131    1.1082 C   0  0  0  1  0  0  0  0  0  0  0  0
   -2.9740    4.1663    0.0264 C   0  0  0  1  0  0  0  0  0  0  0  0
   -3.6205    5.3747   -0.1819 C   0  0  0  1  0  0  0  0  0  0  0  0
   -1.3340    2.7451    1.3183 C   0  0  0  1  0  0  0  0  0  0  0  0
   -2.4138    7.0651    2.4318 H   0  0  0  1  0  0  0  0  0  0  0  0
   -1.2809    4.9551    2.7936 H   0  0  0  1  0  0  0  0  0  0  0  0
   -3.1258    3.3751   -0.6313 H   0  0  0  1  0  0  0  0  0  0  0  0
   -4.2606    5.4888   -0.9936 H   0  0  0  1  0  0  0  0  0  0  0  0
   -1.1807    2.5969    2.3668 H   0  0  0  1  0  0  0  0  0  0  0  0
   -1.8815    1.9180    0.9170 H   0  0  0  1  0  0  0  0  0  0  0  0
  1  4  1  0  0  0  0
  2  4  1  0  0  0  0
  2  5  2  0  0  0  0
  2  6  1  0  0  0  0
  3  4  1  0  0  0  0
  3  7  1  0  0  0  0
  3  8  1  0  0  0  0
  4 26  1  0  0  0  0
  6  9  1  0  0  0  0
  6 12  1  0  0  0  0
  8 10  1  0  0  0  0
  8 11  2  0  0  0  0
  9 13  1  0  0  0  0
  9 14  1  0  0  0  0
  9 15  1  0  0  0  0
 10 16  1  0  0  0  0
 10 17  1  0  0  0  0
 10 18  1  0  0  0  0
 19 20  1  0  0  0  0
 20 21  4  0  0  0  0
 20 25  4  0  0  0  0
 21 22  4  0  0  0  0
 21 27  1  0  0  0  0
 22 23  4  0  0  0  0
 22 28  1  0  0  0  0
 23 24  4  0  0  0  0
 23 26  1  0  0  0  0
 24 25  4  0  0  0  0
 24 29  1  0  0  0  0
 25 30  1  0  0  0  0
 26 31  1  0  0  0  0
 26 32  1  0  0  0  0
M  END
> <BCLConfClusterSize>
1

> <ConfClashScore>
0 

> <ConfOneFourInteractionScore>
-0.980716 

> <ConfScore>
0.190027 

> <ConfScorePBest>
0.00316299 

> <ConfTolerance>
0.294526 

> <RosettaParamsInstructions>
M  ROOT 3
M  POLY_N_BB 3
M  POLY_CA_BB 4
M  POLY_C_BB 2
M  POLY_O_BB 5
M  POLY_IGNORE 9 10 11 12 13 14 15 16 17 18 
M  POLY_UPPER 6
M  POLY_LOWER 8
M  POLY_CHG 0
M  POLY_PROPERTIES ALPHA_AA L_AA PROTEIN AROMATIC POLYMER 
M  END

$$$$



 32 32  0  0  0  0  0  0  0  0999 V2000
   -1.7241    0.8530    2.2490 H   0  0  0  1  0  0  0  0  0  0  0  0
   -2.1742    2.3095    3.6894 C   0  0  0  1  0  0  0  0  0  0  0  0
   -3.5730    1.6159    1.7888 N   0  0  0  1  0  0  0  0  0  0  0  0
   -2.2039    1.8094    2.2530 C   0  0  0  1  0  0  0  0  0  0  0  0
   -1.1283    2.6962    4.2094 O   0  0  0  1  0  0  0  0  0  0  0  0
   -3.3509    2.2979    4.3354 N   0  0  0  1  0  0  0  0  0  0  0  0
   -4.2913    2.1867    2.1331 H   0  0  0  1  0  0  0  0  0  0  0  0
   -3.8499    0.6621    0.8951 C   0  0  0  1  0  0  0  0  0  0  0  0
   -3.4728    2.9247    5.6432 C   0  0  0  1  0  0  0  0  0  0  0  0
   -5.3261    0.4682    0.5260 C   0  0  0  1  0  0  0  0  0  0  0  0
   -2.9825    0.0083    0.3172 O   0  0  0  1  0  0  0  0  0  0  0  0
   -4.1295    1.8665    3.9255 H   0  0  0  1  0  0  0  0  0  0  0  0
   -4.3682    2.5848    6.1201 H   0  0  0  1  0  0  0  0  0  0  0  0
   -3.5124    3.9876    5.5267 H   0  0  0  1  0  0  0  0  0  0  0  0
   -2.6272    2.6626    6.2442 H   0  0  0  1  0  0  0  0  0  0  0  0
   -5.8745    0.1659    1.3936 H   0  0  0  1  0  0  0  0  0  0  0  0
   -5.4087   -0.2859   -0.2286 H   0  0  0  1  0  0  0  0  0  0  0  0
   -5.7247    1.3895    0.1554 H   0  0  0  1  0  0  0  0  0  0  0  0
   -4.4032    8.2433    0.3789 I   0  0  0  1  0  0  0  0  0  0  0  0
   -3.4175    6.4271    0.6918 C   0  0  0  1  0  0  0  0  0  0  0  0
   -2.5641    6.2783    1.7740 C   0  0  0  1  0  0  0  0  0  0  0  0
   -1.9084    5.0788    1.9774 C   0  0  0  1  0  0  0  0  0  0  0  0
   -2.1083    4.0227    1.1021 C   0  0  0  1  0  0  0  0  0  0  0  0
   -2.9591    4.1708    0.0229 C   0  0  0  1  0  0  0  0  0  0  0  0
   -3.6167    5.3740   -0.1809 C   0  0  0  1  0  0  0  0  0  0  0  0
   -1.3965    2.7096    1.3270 C   0  0  0  1  0  0  0  0  0  0  0  0
   -2.4173    7.0693    2.4330 H   0  0  0  1  0  0  0  0  0  0  0  0
   -1.2651    4.9685    2.7871 H   0  0  0  1  0  0  0  0  0  0  0  0
   -3.1058    3.3797   -0.6360 H   0  0  0  1  0  0  0  0  0  0  0  0
   -4.2600    5.4843   -0.9906 H   0  0  0  1  0  0  0  0  0  0  0  0
   -1.2639    2.2168    0.3865 H   0  0  0  1  0  0  0  0  0  0  0  0
   -0.4405    2.8998    1.7684 H   0  0  0  1  0  0  0  0  0  0  0  0
  1  4  1  0  0  0  0
  2  4  1  0  0  0  0
  2  5  2  0  0  0  0
  2  6  1  0  0  0  0
  3  4  1  0  0  0  0
  3  7  1  0  0  0  0
  3  8  1  0  0  0  0
  4 26  1  0  0  0  0
  6  9  1  0  0  0  0
  6 12  1  0  0  0  0
  8 10  1  0  0  0  0
  8 11  2  0  0  0  0
  9 13  1  0  0  0  0
  9 14  1  0  0  0  0
  9 15  1  0  0  0  0
 10 16  1  0  0  0  0
 10 17  1  0  0  0  0
 10 18  1  0  0  0  0
 19 20  1  0  0  0  0
 20 21  4  0  0  0  0
 20 25  4  0  0  0  0
 21 22  4  0  0  0  0
 21 27  1  0  0  0  0
 22 23  4  0  0  0  0
 22 28  1  0  0  0  0
 23 24  4  0  0  0  0
 23 26  1  0  0  0  0
 24 25  4  0  0  0  0
 24 29  1  0  0  0  0
 25 30  1  0  0  0  0
 26 31  1  0  0  0  0
 26 32  1  0  0  0  0
M  END
> <BCLConfClusterSize>
1

> <ConfClashScore>
0 

> <ConfOneFourInteractionScore>
-0.932585 

> <ConfScore>
0.193559 

> <ConfScorePBest>
0.00313451 

> <ConfTolerance>
0.285082 

> <RosettaParamsInstructions>
M  ROOT 3
M  POLY_N_BB 3
M  POLY_CA_BB 4
M  POLY_C_BB 2
M  POLY_O_BB 5
M  POLY_IGNORE 9 10 11 12 13 14 15 16 17 18 
M  POLY_UPPER 6
M  POLY_LOWER 8
M  POLY_CHG 0
M  POLY_PROPERTIES ALPHA_AA L_AA PROTEIN AROMATIC POLYMER 
M  END

$$$$



 32 32  0  0  0  0  0  0  0  0999 V2000
   -1.6744    2.7819    3.4260 H   0  0  0  1  0  0  0  0  0  0  0  0
   -3.1901    1.5073    2.6601 C   0  0  0  1  0  0  0  0  0  0  0  0
   -0.8824    0.9293    2.9381 N   0  0  0  1  0  0  0  0  0  0  0  0
   -1.7641    2.0507    2.6500 C   0  0  0  1  0  0  0  0  0  0  0  0
   -3.4554    0.3637    2.3282 O   0  0  0  1  0  0  0  0  0  0  0  0
   -4.1875    2.3084    3.0454 N   0  0  0  1  0  0  0  0  0  0  0  0
   -0.5782    0.3644    2.1974 H   0  0  0  1  0  0  0  0  0  0  0  0
   -0.4732    0.6432    4.1774 C   0  0  0  1  0  0  0  0  0  0  0  0
   -5.5786    1.8814    3.0280 C   0  0  0  1  0  0  0  0  0  0  0  0
    0.5061   -0.5024    4.2976 C   0  0  0  1  0  0  0  0  0  0  0  0
   -0.8576    1.2611    5.1690 O   0  0  0  1  0  0  0  0  0  0  0  0
   -3.9749    3.2152    3.3504 H   0  0  0  1  0  0  0  0  0  0  0  0
   -6.2109    2.7303    2.8719 H   0  0  0  1  0  0  0  0  0  0  0  0
   -5.8223    1.4226    3.9634 H   0  0  0  1  0  0  0  0  0  0  0  0
   -5.7253    1.1772    2.2358 H   0  0  0  1  0  0  0  0  0  0  0  0
    1.4057   -0.2600    3.7714 H   0  0  0  1  0  0  0  0  0  0  0  0
    0.0742   -1.3863    3.8768 H   0  0  0  1  0  0  0  0  0  0  0  0
    0.7316   -0.6717    5.3298 H   0  0  0  1  0  0  0  0  0  0  0  0
   -4.4032    8.2433    0.3789 I   0  0  0  1  0  0  0  0  0  0  0  0
   -3.4175    6.4271    0.6918 C   0  0  0  1  0  0  0  0  0  0  0  0
   -2.5641    6.2783    1.7740 C   0  0  0  1  0  0  0  0  0  0  0  0
   -1.9084    5.0788    1.9774 C   0  0  0  1  0  0  0  0  0  0  0  0
   -2.1083    4.0227    1.1021 C   0  0  0  1  0  0  0  0  0  0  0  0
   -2.9591    4.1708    0.0229 C   0  0  0  1  0  0  0  0  0  0  0  0
   -3.6167    5.3740   -0.1809 C   0  0  0  1  0  0  0  0  0  0  0  0
   -1.3965    2.7096    1.3270 C   0  0  0  1  0  0  0  0  0  0  0  0
   -2.4173    7.0693    2.4330 H   0  0  0  1  0  0  0  0  0  0  0  0
   -1.2651    4.9685    2.7871 H   0  0  0  1  0  0  0  0  0  0  0  0
   -3.1058    3.3797   -0.6360 H   0  0  0  1  0  0  0  0  0  0  0  0
   -4.2600    5.4843   -0.9906 H   0  0  0  1  0  0  0  0  0  0  0  0
   -1.6535    2.0422    0.5311 H   0  0  0  1  0  0  0  0  0  0  0  0
   -0.3415    2.8880    1.3169 H   0  0  0  1  0  0  0  0  0  0  0  0
  1  4  1  0  0  0  0
  2  4  1  0  0  0  0
  2  5  2  0  0  0  0
  2  6  1  0  0  0  0
  3  4  1  0  0  0  0
  3  7  1  0  0  0  0
  3  8  1  0  0  0  0
  4 26  1  0  0  0  0
  6  9  1  0  0  0  0
  6 12  1  0  0  0  0
  8 10  1  0  0  0  0
  8 11  2  0  0  0  0
  9 13  1  0  0  0  0
  9 14  1  0  0  0  0
  9 15  1  0  0  0  0
 10 16  1  0  0  0  0
 10 17  1  0  0  0  0
 10 18  1  0  0  0  0
 19 20  1  0  0  0  0
 20 21  4  0  0  0  0
 20 25  4  0  0  0  0
 21 22  4  0  0  0  0
 21 27  1  0  0  0  0
 22 23  4  0  0  0  0
 22 28  1  0  0  0  0
 23 24  4  0  0  0  0
 23 26  1  0  0  0  0
 24 25  4  0  0  0  0
 24 29  1  0  0  0  0
 25 30  1  0  0  0  0
 26 31  1  0  0  0  0
 26 32  1  0  0  0  0
M  END
> <BCLConfClusterSize>
1

> <ConfClashScore>
0 

> <ConfOneFourInteractionScore>
-0.985807 

> <ConfScore>
0.197009 

> <ConfScorePBest>
0.00310603 

> <ConfTolerance>
0.655783 

> <RosettaParamsInstructions>
M  ROOT 3
M  POLY_N_BB 3
M  POLY_CA_BB 4
M  POLY_C_BB 2
M  POLY_O_BB 5
M  POLY_IGNORE 9 10 11 12 13 14 15 16 17 18 
M  POLY_UPPER 6
M  POLY_LOWER 8
M  POLY_CHG 0
M  POLY_PROPERTIES ALPHA_AA L_AA PROTEIN AROMATIC POLYMER 
M  END

$$$$



 32 32  0  0  0  0  0  0  0  0999 V2000
   -3.0228    1.4055    1.7753 H   0  0  0  1  0  0  0  0  0  0  0  0
   -1.3188    0.6150    2.7436 C   0  0  0  1  0  0  0  0  0  0  0  0
   -2.6599    2.5134    3.4830 N   0  0  0  1  0  0  0  0  0  0  0  0
   -2.1821    1.7893    2.3146 C   0  0  0  1  0  0  0  0  0  0  0  0
   -0.6281    0.6687    3.7577 O   0  0  0  1  0  0  0  0  0  0  0  0
   -1.3657   -0.4598    1.9514 N   0  0  0  1  0  0  0  0  0  0  0  0
   -3.6294    2.5933    3.6014 H   0  0  0  1  0  0  0  0  0  0  0  0
   -1.8686    3.0831    4.4156 C   0  0  0  1  0  0  0  0  0  0  0  0
   -0.5424   -1.6363    2.1878 C   0  0  0  1  0  0  0  0  0  0  0  0
   -2.5336    3.8399    5.5488 C   0  0  0  1  0  0  0  0  0  0  0  0
   -0.6433    2.9926    4.3507 O   0  0  0  1  0  0  0  0  0  0  0  0
   -1.9757   -0.4558    1.1844 H   0  0  0  1  0  0  0  0  0  0  0  0
   -0.4246   -1.7841    3.2410 H   0  0  0  1  0  0  0  0  0  0  0  0
    0.4183   -1.4953    1.7381 H   0  0  0  1  0  0  0  0  0  0  0  0
   -1.0154   -2.4945    1.7582 H   0  0  0  1  0  0  0  0  0  0  0  0
   -3.5843    3.6379    5.5451 H   0  0  0  1  0  0  0  0  0  0  0  0
   -2.3720    4.8897    5.4194 H   0  0  0  1  0  0  0  0  0  0  0  0
   -2.1136    3.5262    6.4816 H   0  0  0  1  0  0  0  0  0  0  0  0
   -4.4626    8.2135    0.4097 I   0  0  0  1  0  0  0  0  0  0  0  0
   -3.3933    6.4379    0.6780 C   0  0  0  1  0  0  0  0  0  0  0  0
   -2.5461    6.2800    1.7638 C   0  0  0  1  0  0  0  0  0  0  0  0
   -1.9080    5.0719    1.9728 C   0  0  0  1  0  0  0  0  0  0  0  0
   -2.1195    4.0164    1.0995 C   0  0  0  1  0  0  0  0  0  0  0  0
   -2.9641    4.1736    0.0168 C   0  0  0  1  0  0  0  0  0  0  0  0
   -3.6040    5.3854   -0.1926 C   0  0  0  1  0  0  0  0  0  0  0  0
   -1.4020    2.7167    1.3776 C   0  0  0  1  0  0  0  0  0  0  0  0
   -2.3906    7.0707    2.4213 H   0  0  0  1  0  0  0  0  0  0  0  0
   -1.2693    4.9548    2.7852 H   0  0  0  1  0  0  0  0  0  0  0  0
   -3.1196    3.3829   -0.6406 H   0  0  0  1  0  0  0  0  0  0  0  0
   -4.2427    5.5025   -1.0050 H   0  0  0  1  0  0  0  0  0  0  0  0
   -1.2449    2.2089    0.4490 H   0  0  0  1  0  0  0  0  0  0  0  0
   -0.4570    2.9389    1.8276 H   0  0  0  1  0  0  0  0  0  0  0  0
  1  4  1  0  0  0  0
  2  4  1  0  0  0  0
  2  5  2  0  0  0  0
  2  6  1  0  0  0  0
  3  4  1  0  0  0  0
  3  7  1  0  0  0  0
  3  8  1  0  0  0  0
  4 26  1  0  0  0  0
  6  9  1  0  0  0  0
  6 12  1  0  0  0  0
  8 10  1  0  0  0  0
  8 11  2  0  0  0  0
  9 13  1  0  0  0  0
  9 14  1  0  0  0  0
  9 15  1  0  0  0  0
 10 16  1  0  0  0  0
 10 17  1  0  0  0  0
 10 18  1  0  0  0  0
 19 20  1  0  0  0  0
 20 21  4  0  0  0  0
 20 25  4  0  0  0  0
 21 22  4  0  0  0  0
 21 27  1  0  0  0  0
 22 23  4  0  0  0  0
 22 28  1  0  0  0  0
 23 24  4  0  0  0  0
 23 26  1  0  0  0  0
 24 25  4  0  0  0  0
 24 29  1  0  0  0  0
 25 30  1  0  0  0  0
 26 31  1  0  0  0  0
 26 32  1  0  0  0  0
M  END
> <BCLConfClusterSize>
1

> <ConfClashScore>
0 

> <ConfOneFourInteractionScore>
-0.98648 

> <ConfScore>
0.200202 

> <ConfScorePBest>
0.00307755 

> <ConfTolerance>
0.410514 

> <RosettaParamsInstructions>
M  ROOT 3
M  POLY_N_BB 3
M  POLY_CA_BB 4
M  POLY_C_BB 2
M  POLY_O_BB 5
M  POLY_IGNORE 9 10 11 12 13 14 15 16 17 18 
M  POLY_UPPER 6
M  POLY_LOWER 8
M  POLY_CHG 0
M  POLY_PROPERTIES ALPHA_AA L_AA PROTEIN AROMATIC POLYMER 
M  END

$$$$



 32 32  0  0  0  0  0  0  0  0999 V2000
   -2.6111    1.6067    0.0164 H   0  0  0  1  0  0  0  0  0  0  0  0
   -0.9732    2.2107   -1.1457 C   0  0  0  1  0  0  0  0  0  0  0  0
   -0.9961    0.4238    0.5369 N   0  0  0  1  0  0  0  0  0  0  0  0
   -1.5603    1.7377    0.1699 C   0  0  0  1  0  0  0  0  0  0  0  0
    0.2388    2.3719   -1.2828 O   0  0  0  1  0  0  0  0  0  0  0  0
   -1.8566    2.4361   -2.1311 N   0  0  0  1  0  0  0  0  0  0  0  0
   -0.6959    0.2788    1.4585 H   0  0  0  1  0  0  0  0  0  0  0  0
   -0.8794   -0.5842   -0.3522 C   0  0  0  1  0  0  0  0  0  0  0  0
   -1.4061    2.9753   -3.4093 C   0  0  0  1  0  0  0  0  0  0  0  0
   -0.0991   -1.8157    0.0648 C   0  0  0  1  0  0  0  0  0  0  0  0
   -1.3901   -0.5090   -1.4689 O   0  0  0  1  0  0  0  0  0  0  0  0
   -2.8061    2.2380   -1.9913 H   0  0  0  1  0  0  0  0  0  0  0  0
   -2.2551    3.2396   -4.0045 H   0  0  0  1  0  0  0  0  0  0  0  0
   -0.8265    2.2371   -3.9231 H   0  0  0  1  0  0  0  0  0  0  0  0
   -0.8064    3.8447   -3.2380 H   0  0  0  1  0  0  0  0  0  0  0  0
   -0.6846   -2.3953    0.7475 H   0  0  0  1  0  0  0  0  0  0  0  0
    0.8112   -1.5166    0.5409 H   0  0  0  1  0  0  0  0  0  0  0  0
    0.1267   -2.4042   -0.7998 H   0  0  0  1  0  0  0  0  0  0  0  0
   -4.4032    8.2433    0.3789 I   0  0  0  1  0  0  0  0  0  0  0  0
   -3.4175    6.4271    0.6918 C   0  0  0  1  0  0  0  0  0  0  0  0
   -2.5641    6.2783    1.7740 C   0  0  0  1  0  0  0  0  0  0  0  0
   -1.9084    5.0788    1.9774 C   0  0  0  1  0  0  0  0  0  0  0  0
   -2.1083    4.0227    1.1021 C   0  0  0  1  0  0  0  0  0  0  0  0
   -2.9591    4.1708    0.0229 C   0  0  0  1  0  0  0  0  0  0  0  0
   -3.6167    5.3740   -0.1809 C   0  0  0  1  0  0  0  0  0  0  0  0
   -1.3965    2.7096    1.3270 C   0  0  0  1  0  0  0  0  0  0  0  0
   -2.4173    7.0693    2.4330 H   0  0  0  1  0  0  0  0  0  0  0  0
   -1.2651    4.9685    2.7871 H   0  0  0  1  0  0  0  0  0  0  0  0
   -3.1058    3.3797   -0.6360 H   0  0  0  1  0  0  0  0  0  0  0  0
   -4.2600    5.4843   -0.9906 H   0  0  0  1  0  0  0  0  0  0  0  0
   -0.3534    2.9063    1.4615 H   0  0  0  1  0  0  0  0  0  0  0  0
   -1.7913    2.2554    2.2117 H   0  0  0  1  0  0  0  0  0  0  0  0
  1  4  1  0  0  0  0
  2  4  1  0  0  0  0
  2  5  2  0  0  0  0
  2  6  1  0  0  0  0
  3  4  1  0  0  0  0
  3  7  1  0  0  0  0
  3  8  1  0  0  0  0
  4 26  1  0  0  0  0
  6  9  1  0  0  0  0
  6 12  1  0  0  0  0
  8 10  1  0  0  0  0
  8 11  2  0  0  0  0
  9 13  1  0  0  0  0
  9 14  1  0  0  0  0
  9 15  1  0  0  0  0
 10 16  1  0  0  0  0
 10 17  1  0  0  0  0
 10 18  1  0  0  0  0
 19 20  1  0  0  0  0
 20 21  4  0  0  0  0
 20 25  4  0  0  0  0
 21 22  4  0  0  0  0
 21 27  1  0  0  0  0
 22 23  4  0  0  0  0
 22 28  1  0  0  0  0
 23 24  4  0  0  0  0
 23 26  1  0  0  0  0
 24 25  4  0  0  0  0
 24 29  1  0  0  0  0
 25 30  1  0  0  0  0
 26 31  1  0  0  0  0
 26 32  1  0  0  0  0
M  END
> <BCLConfClusterSize>
1

> <ConfClashScore>
0 

> <ConfOneFourInteractionScore>
-0.970686 

> <ConfScore>
0.209868 

> <ConfScorePBest>
0.00304907 

> <ConfTolerance>
0.835776 

> <RosettaParamsInstructions>
M  ROOT 3
M  POLY_N_BB 3
M  POLY_CA_BB 4
M  POLY_C_BB 2
M  POLY_O_BB 5
M  POLY_IGNORE 9 10 11 12 13 14 15 16 17 18 
M  POLY_UPPER 6
M  POLY_LOWER 8
M  POLY_CHG 0
M  POLY_PROPERTIES ALPHA_AA L_AA PROTEIN AROMATIC POLYMER 
M  END

$$$$



 32 32  0  0  0  0  0  0  0  0999 V2000
   -1.5606    0.8177    2.2234 H   0  0  0  1  0  0  0  0  0  0  0  0
   -2.8758    2.0434    3.3076 C   0  0  0  1  0  0  0  0  0  0  0  0
   -3.2442    1.1208    1.0604 N   0  0  0  1  0  0  0  0  0  0  0  0
   -2.2241    1.6268    2.0000 C   0  0  0  1  0  0  0  0  0  0  0  0
   -2.3249    1.8512    4.3790 O   0  0  0  1  0  0  0  0  0  0  0  0
   -4.0740    2.6246    3.1996 N   0  0  0  1  0  0  0  0  0  0  0  0
   -4.1767    1.3971    1.1809 H   0  0  0  1  0  0  0  0  0  0  0  0
   -2.9333    0.2806    0.0285 C   0  0  0  1  0  0  0  0  0  0  0  0
   -4.8630    3.0013    4.3630 C   0  0  0  1  0  0  0  0  0  0  0  0
   -4.1417   -0.1769   -0.7651 C   0  0  0  1  0  0  0  0  0  0  0  0
   -1.7846   -0.0539   -0.2100 O   0  0  0  1  0  0  0  0  0  0  0  0
   -4.4341    2.8035    2.3059 H   0  0  0  1  0  0  0  0  0  0  0  0
   -4.2518    3.5546    5.0451 H   0  0  0  1  0  0  0  0  0  0  0  0
   -5.2283    2.1195    4.8466 H   0  0  0  1  0  0  0  0  0  0  0  0
   -5.6888    3.6068    4.0527 H   0  0  0  1  0  0  0  0  0  0  0  0
   -4.8515   -0.6305   -0.1053 H   0  0  0  1  0  0  0  0  0  0  0  0
   -3.8349   -0.8888   -1.5027 H   0  0  0  1  0  0  0  0  0  0  0  0
   -4.5912    0.6659   -1.2474 H   0  0  0  1  0  0  0  0  0  0  0  0
   -4.4032    8.2433    0.3789 I   0  0  0  1  0  0  0  0  0  0  0  0
   -3.4175    6.4271    0.6918 C   0  0  0  1  0  0  0  0  0  0  0  0
   -2.5641    6.2783    1.7740 C   0  0  0  1  0  0  0  0  0  0  0  0
   -1.9084    5.0788    1.9774 C   0  0  0  1  0  0  0  0  0  0  0  0
   -2.1083    4.0227    1.1021 C   0  0  0  1  0  0  0  0  0  0  0  0
   -2.9591    4.1708    0.0229 C   0  0  0  1  0  0  0  0  0  0  0  0
   -3.6167    5.3740   -0.1809 C   0  0  0  1  0  0  0  0  0  0  0  0
   -1.3965    2.7096    1.3270 C   0  0  0  1  0  0  0  0  0  0  0  0
   -2.4173    7.0693    2.4330 H   0  0  0  1  0  0  0  0  0  0  0  0
   -1.2651    4.9685    2.7871 H   0  0  0  1  0  0  0  0  0  0  0  0
   -3.1058    3.3797   -0.6360 H   0  0  0  1  0  0  0  0  0  0  0  0
   -4.2600    5.4843   -0.9906 H   0  0  0  1  0  0  0  0  0  0  0  0
   -1.0794    2.3387    0.3747 H   0  0  0  1  0  0  0  0  0  0  0  0
   -0.5400    2.8991    1.9397 H   0  0  0  1  0  0  0  0  0  0  0  0
  1  4  1  0  0  0  0
  2  4  1  0  0  0  0
  2  5  2  0  0  0  0
  2  6  1  0  0  0  0
  3  4  1  0  0  0  0
  3  7  1  0  0  0  0
  3  8  1  0  0  0  0
  4 26  1  0  0  0  0
  6  9  1  0  0  0  0
  6 12  1  0  0  0  0
  8 10  1  0  0  0  0
  8 11  2  0  0  0  0
  9 13  1  0  0  0  0
  9 14  1  0  0  0  0
  9 15  1  0  0  0  0
 10 16  1  0  0  0  0
 10 17  1  0  0  0  0
 10 18  1  0  0  0  0
 19 20  1  0  0  0  0
 20 21  4  0  0  0  0
 20 25  4  0  0  0  0
 21 22  4  0  0  0  0
 21 27  1  0  0  0  0
 22 23  4  0  0  0  0
 22 28  1  0  0  0  0
 23 24  4  0  0  0  0
 23 26  1  0  0  0  0
 24 25  4  0  0  0  0
 24 29  1  0  0  0  0
 25 30  1  0  0  0  0
 26 31  1  0  0  0  0
 26 32  1  0  0  0  0
M  END
> <BCLConfClusterSize>
1

> <ConfClashScore>
0 

> <ConfOneFourInteractionScore>
-0.96177 

> <ConfScore>
0.212226 

> <ConfScorePBest>
0.00302059 

> <ConfTolerance>
0.36309 

> <RosettaParamsInstructions>
M  ROOT 3
M  POLY_N_BB 3
M  POLY_CA_BB 4
M  POLY_C_BB 2
M  POLY_O_BB 5
M  POLY_IGNORE 9 10 11 12 13 14 15 16 17 18 
M  POLY_UPPER 6
M  POLY_LOWER 8
M  POLY_CHG 0
M  POLY_PROPERTIES ALPHA_AA L_AA PROTEIN AROMATIC POLYMER 
M  END

$$$$



 32 32  0  0  0  0  0  0  0  0999 V2000
   -3.1601    1.7621    1.9506 H   0  0  0  1  0  0  0  0  0  0  0  0
   -1.6693    0.3326    2.2875 C   0  0  0  1  0  0  0  0  0  0  0  0
   -2.1446    2.3464    3.6453 N   0  0  0  1  0  0  0  0  0  0  0  0
   -2.1421    1.7806    2.2795 C   0  0  0  1  0  0  0  0  0  0  0  0
   -0.8346   -0.0620    3.1006 O   0  0  0  1  0  0  0  0  0  0  0  0
   -2.2202   -0.4659    1.3596 N   0  0  0  1  0  0  0  0  0  0  0  0
   -1.2964    2.5135    4.1068 H   0  0  0  1  0  0  0  0  0  0  0  0
   -3.3121    2.6332    4.2576 C   0  0  0  1  0  0  0  0  0  0  0  0
   -3.2822   -0.0116    0.4745 C   0  0  0  1  0  0  0  0  0  0  0  0
   -3.2587    3.2317    5.6498 C   0  0  0  1  0  0  0  0  0  0  0  0
   -4.3896    2.4164    3.7049 O   0  0  0  1  0  0  0  0  0  0  0  0
   -1.8959   -1.3869    1.2753 H   0  0  0  1  0  0  0  0  0  0  0  0
   -3.1472   -0.4420   -0.4958 H   0  0  0  1  0  0  0  0  0  0  0  0
   -3.2510    1.0553    0.3986 H   0  0  0  1  0  0  0  0  0  0  0  0
   -4.2294   -0.3140    0.8698 H   0  0  0  1  0  0  0  0  0  0  0  0
   -2.7491    4.1719    5.6151 H   0  0  0  1  0  0  0  0  0  0  0  0
   -2.7348    2.5664    6.3039 H   0  0  0  1  0  0  0  0  0  0  0  0
   -4.2543    3.3791    6.0128 H   0  0  0  1  0  0  0  0  0  0  0  0
   -4.4282    8.2202    0.3317 I   0  0  0  1  0  0  0  0  0  0  0  0
   -3.4115    6.4323    0.7029 C   0  0  0  1  0  0  0  0  0  0  0  0
   -2.5568    6.2769    1.7831 C   0  0  0  1  0  0  0  0  0  0  0  0
   -1.9042    5.0747    1.9808 C   0  0  0  1  0  0  0  0  0  0  0  0
   -2.1085    4.0226    1.1017 C   0  0  0  1  0  0  0  0  0  0  0  0
   -2.9606    4.1774    0.0245 C   0  0  0  1  0  0  0  0  0  0  0  0
   -3.6151    5.3832   -0.1735 C   0  0  0  1  0  0  0  0  0  0  0  0
   -1.4001    2.7066    1.3203 C   0  0  0  1  0  0  0  0  0  0  0  0
   -2.4067    7.0649    2.4450 H   0  0  0  1  0  0  0  0  0  0  0  0
   -1.2599    4.9595    2.7890 H   0  0  0  1  0  0  0  0  0  0  0  0
   -3.1108    3.3893   -0.6372 H   0  0  0  1  0  0  0  0  0  0  0  0
   -4.2595    5.4985   -0.9817 H   0  0  0  1  0  0  0  0  0  0  0  0
   -1.3020    2.2118    0.3767 H   0  0  0  1  0  0  0  0  0  0  0  0
   -0.4286    2.9055    1.7221 H   0  0  0  1  0  0  0  0  0  0  0  0
  1  4  1  0  0  0  0
  2  4  1  0  0  0  0
  2  5  2  0  0  0  0
  2  6  1  0  0  0  0
  3  4  1  0  0  0  0
  3  7  1  0  0  0  0
  3  8  1  0  0  0  0
  4 26  1  0  0  0  0
  6  9  1  0  0  0  0
  6 12  1  0  0  0  0
  8 10  1  0  0  0  0
  8 11  2  0  0  0  0
  9 13  1  0  0  0  0
  9 14  1  0  0  0  0
  9 15  1  0  0  0  0
 10 16  1  0  0  0  0
 10 17  1  0  0  0  0
 10 18  1  0  0  0  0
 19 20  1  0  0  0  0
 20 21  4  0  0  0  0
 20 25  4  0  0  0  0
 21 22  4  0  0  0  0
 21 27  1  0  0  0  0
 22 23  4  0  0  0  0
 22 28  1  0  0  0  0
 23 24  4  0  0  0  0
 23 26  1  0  0  0  0
 24 25  4  0  0  0  0
 24 29  1  0  0  0  0
 25 30  1  0  0  0  0
 26 31  1  0  0  0  0
 26 32  1  0  0  0  0
M  END
> <BCLConfClusterSize>
1

> <ConfClashScore>
0 

> <ConfOneFourInteractionScore>
-0.982002 

> <ConfScore>
0.21227 

> <ConfScorePBest>
0.00299211 

> <ConfTolerance>
0.730096 

> <RosettaParamsInstructions>
M  ROOT 3
M  POLY_N_BB 3
M  POLY_CA_BB 4
M  POLY_C_BB 2
M  POLY_O_BB 5
M  POLY_IGNORE 9 10 11 12 13 14 15 16 17 18 
M  POLY_UPPER 6
M  POLY_LOWER 8
M  POLY_CHG 0
M  POLY_PROPERTIES ALPHA_AA L_AA PROTEIN AROMATIC POLYMER 
M  END

$$$$



 32 32  0  0  0  0  0  0  0  0999 V2000
   -1.0762    3.3552    3.2742 H   0  0  0  1  0  0  0  0  0  0  0  0
   -1.2315    1.2506    3.3275 C   0  0  0  1  0  0  0  0  0  0  0  0
    0.6847    2.5433    2.5566 N   0  0  0  1  0  0  0  0  0  0  0  0
   -0.7666    2.5324    2.6641 C   0  0  0  1  0  0  0  0  0  0  0  0
   -2.1986    1.2485    4.0880 O   0  0  0  1  0  0  0  0  0  0  0  0
   -0.5571    0.1211    3.0602 N   0  0  0  1  0  0  0  0  0  0  0  0
    1.0526    2.6719    1.6574 H   0  0  0  1  0  0  0  0  0  0  0  0
    1.5736    2.3978    3.5457 C   0  0  0  1  0  0  0  0  0  0  0  0
   -0.8337   -1.1309    3.7487 C   0  0  0  1  0  0  0  0  0  0  0  0
    3.0313    2.5051    3.1423 C   0  0  0  1  0  0  0  0  0  0  0  0
    1.2485    2.1900    4.7117 O   0  0  0  1  0  0  0  0  0  0  0  0
    0.1460    0.1403    2.3778 H   0  0  0  1  0  0  0  0  0  0  0  0
   -1.8493   -1.1366    4.0853 H   0  0  0  1  0  0  0  0  0  0  0  0
   -0.1790   -1.2275    4.5894 H   0  0  0  1  0  0  0  0  0  0  0  0
   -0.6761   -1.9491    3.0774 H   0  0  0  1  0  0  0  0  0  0  0  0
    3.6259    1.8899    3.7848 H   0  0  0  1  0  0  0  0  0  0  0  0
    3.3507    3.5228    3.2277 H   0  0  0  1  0  0  0  0  0  0  0  0
    3.1459    2.1785    2.1299 H   0  0  0  1  0  0  0  0  0  0  0  0
   -4.4059    8.2409    0.3740 I   0  0  0  1  0  0  0  0  0  0  0  0
   -3.4171    6.4273    0.6924 C   0  0  0  1  0  0  0  0  0  0  0  0
   -2.5646    6.2828    1.7759 C   0  0  0  1  0  0  0  0  0  0  0  0
   -1.9069    5.0850    1.9830 C   0  0  0  1  0  0  0  0  0  0  0  0
   -2.1039    4.0264    1.1101 C   0  0  0  1  0  0  0  0  0  0  0  0
   -2.9538    4.1702    0.0297 C   0  0  0  1  0  0  0  0  0  0  0  0
   -3.6134    5.3716   -0.1778 C   0  0  0  1  0  0  0  0  0  0  0  0
   -1.4177    2.6926    1.2883 C   0  0  0  1  0  0  0  0  0  0  0  0
   -2.4200    7.0758    2.4331 H   0  0  0  1  0  0  0  0  0  0  0  0
   -1.2643    4.9780    2.7937 H   0  0  0  1  0  0  0  0  0  0  0  0
   -3.0984    3.3772   -0.6274 H   0  0  0  1  0  0  0  0  0  0  0  0
   -4.2560    5.4787   -0.9885 H   0  0  0  1  0  0  0  0  0  0  0  0
   -2.1436    1.9167    1.1626 H   0  0  0  1  0  0  0  0  0  0  0  0
   -0.6594    2.5970    0.5395 H   0  0  0  1  0  0  0  0  0  0  0  0
  1  4  1  0  0  0  0
  2  4  1  0  0  0  0
  2  5  2  0  0  0  0
  2  6  1  0  0  0  0
  3  4  1  0  0  0  0
  3  7  1  0  0  0  0
  3  8  1  0  0  0  0
  4 26  1  0  0  0  0
  6  9  1  0  0  0  0
  6 12  1  0  0  0  0
  8 10  1  0  0  0  0
  8 11  2  0  0  0  0
  9 13  1  0  0  0  0
  9 14  1  0  0  0  0
  9 15  1  0  0  0  0
 10 16  1  0  0  0  0
 10 17  1  0  0  0  0
 10 18  1  0  0  0  0
 19 20  1  0  0  0  0
 20 21  4  0  0  0  0
 20 25  4  0  0  0  0
 21 22  4  0  0  0  0
 21 27  1  0  0  0  0
 22 23  4  0  0  0  0
 22 28  1  0  0  0  0
 23 24  4  0  0  0  0
 23 26  1  0  0  0  0
 24 25  4  0  0  0  0
 24 29  1  0  0  0  0
 25 30  1  0  0  0  0
 26 31  1  0  0  0  0
 26 32  1  0  0  0  0
M  END
> <BCLConfClusterSize>
1

> <ConfClashScore>
0 

> <ConfOneFourInteractionScore>
-0.941392 

> <ConfScore>
0.220187 

> <ConfScorePBest>
0.00296363 

> <ConfTolerance>
0.93816 

> <RosettaParamsInstructions>
M  ROOT 3
M  POLY_N_BB 3
M  POLY_CA_BB 4
M  POLY_C_BB 2
M  POLY_O_BB 5
M  POLY_IGNORE 9 10 11 12 13 14 15 16 17 18 
M  POLY_UPPER 6
M  POLY_LOWER 8
M  POLY_CHG 0
M  POLY_PROPERTIES ALPHA_AA L_AA PROTEIN AROMATIC POLYMER 
M  END

$$$$



 32 32  0  0  0  0  0  0  0  0999 V2000
    0.3098    1.6217    0.7029 H   0  0  0  1  0  0  0  0  0  0  0  0
   -0.2833    2.8809   -0.8872 C   0  0  0  1  0  0  0  0  0  0  0  0
    0.8970    3.5375    1.2038 N   0  0  0  1  0  0  0  0  0  0  0  0
   -0.0563    2.6214    0.5956 C   0  0  0  1  0  0  0  0  0  0  0  0
   -1.3450    2.5769   -1.4246 O   0  0  0  1  0  0  0  0  0  0  0  0
    0.7054    3.4481   -1.5841 N   0  0  0  1  0  0  0  0  0  0  0  0
    0.8246    4.4948    1.0070 H   0  0  0  1  0  0  0  0  0  0  0  0
    1.8755    3.1153    2.0281 C   0  0  0  1  0  0  0  0  0  0  0  0
    0.6414    3.6163   -3.0283 C   0  0  0  1  0  0  0  0  0  0  0  0
    2.7405    4.2418    2.5789 C   0  0  0  1  0  0  0  0  0  0  0  0
    2.0772    1.9520    2.3255 O   0  0  0  1  0  0  0  0  0  0  0  0
    1.5014    3.7618   -1.1063 H   0  0  0  1  0  0  0  0  0  0  0  0
    0.5005    2.6629   -3.4930 H   0  0  0  1  0  0  0  0  0  0  0  0
    1.5545    4.0515   -3.3772 H   0  0  0  1  0  0  0  0  0  0  0  0
   -0.1779    4.2583   -3.2764 H   0  0  0  1  0  0  0  0  0  0  0  0
    2.1178    4.9703    3.0547 H   0  0  0  1  0  0  0  0  0  0  0  0
    3.2790    4.7023    1.7771 H   0  0  0  1  0  0  0  0  0  0  0  0
    3.4323    3.8440    3.2917 H   0  0  0  1  0  0  0  0  0  0  0  0
   -4.3790    8.2629    0.4232 I   0  0  0  1  0  0  0  0  0  0  0  0
   -3.4231    6.4223    0.6814 C   0  0  0  1  0  0  0  0  0  0  0  0
   -2.5710    6.2797    1.7654 C   0  0  0  1  0  0  0  0  0  0  0  0
   -1.9124    5.0827    1.9742 C   0  0  0  1  0  0  0  0  0  0  0  0
   -2.1081    4.0229    1.1024 C   0  0  0  1  0  0  0  0  0  0  0  0
   -2.9577    4.1649    0.0214 C   0  0  0  1  0  0  0  0  0  0  0  0
   -3.6181    5.3656   -0.1878 C   0  0  0  1  0  0  0  0  0  0  0  0
   -1.3932    2.7125    1.3331 C   0  0  0  1  0  0  0  0  0  0  0  0
   -2.4273    7.0735    2.4218 H   0  0  0  1  0  0  0  0  0  0  0  0
   -1.2701    4.9771    2.7853 H   0  0  0  1  0  0  0  0  0  0  0  0
   -3.1013    3.3710   -0.6349 H   0  0  0  1  0  0  0  0  0  0  0  0
   -4.2605    5.4712   -0.9989 H   0  0  0  1  0  0  0  0  0  0  0  0
   -1.2117    2.6037    2.3820 H   0  0  0  1  0  0  0  0  0  0  0  0
   -2.0235    1.9166    0.9953 H   0  0  0  1  0  0  0  0  0  0  0  0
  1  4  1  0  0  0  0
  2  4  1  0  0  0  0
  2  5  2  0  0  0  0
  2  6  1  0  0  0  0
  3  4  1  0  0  0  0
  3  7  1  0  0  0  0
  3  8  1  0  0  0  0
  4 26  1  0  0  0  0
  6  9  1  0  0  0  0
  6 12  1  0  0  0  0
  8 10  1  0  0  0  0
  8 11  2  0  0  0  0
  9 13  1  0  0  0  0
  9 14  1  0  0  0  0
  9 15  1  0  0  0  0
 10 16  1  0  0  0  0
 10 17  1  0  0  0  0
 10 18  1  0  0  0  0
 19 20  1  0  0  0  0
 20 21  4  0  0  0  0
 20 25  4  0  0  0  0
 21 22  4  0  0  0  0
 21 27  1  0  0  0  0
 22 23  4  0  0  0  0
 22 28  1  0  0  0  0
 23 24  4  0  0  0  0
 23 26  1  0  0  0  0
 24 25  4  0  0  0  0
 24 29  1  0  0  0  0
 25 30  1  0  0  0  0
 26 31  1  0  0  0  0
 26 32  1  0  0  0  0
M  END
> <BCLConfClusterSize>
1

> <ConfClashScore>
0 

> <ConfOneFourInteractionScore>
-0.957364 

> <ConfScore>
0.221571 

> <ConfScorePBest>
0.00293515 

> <ConfTolerance>
0.454812 

> <RosettaParamsInstructions>
M  ROOT 3
M  POLY_N_BB 3
M  POLY_CA_BB 4
M  POLY_C_BB 2
M  POLY_O_BB 5
M  POLY_IGNORE 9 10 11 12 13 14 15 16 17 18 
M  POLY_UPPER 6
M  POLY_LOWER 8
M  POLY_CHG 0
M  POLY_PROPERTIES ALPHA_AA L_AA PROTEIN AROMATIC POLYMER 
M  END

$$$$



 32 32  0  0  0  0  0  0  0  0999 V2000
    0.4384    1.9226    2.0060 H   0  0  0  1  0  0  0  0  0  0  0  0
    0.8809    3.8961    1.4392 C   0  0  0  1  0  0  0  0  0  0  0  0
   -0.2940    3.1815    3.4758 N   0  0  0  1  0  0  0  0  0  0  0  0
   -0.0573    2.8697    2.0524 C   0  0  0  1  0  0  0  0  0  0  0  0
    1.5290    3.6680    0.4341 O   0  0  0  1  0  0  0  0  0  0  0  0
    1.0032    5.0983    2.0224 N   0  0  0  1  0  0  0  0  0  0  0  0
   -1.1745    3.5345    3.7220 H   0  0  0  1  0  0  0  0  0  0  0  0
    0.6105    3.0170    4.4633 C   0  0  0  1  0  0  0  0  0  0  0  0
    2.0426    6.0192    1.5873 C   0  0  0  1  0  0  0  0  0  0  0  0
    0.2437    3.4989    5.8534 C   0  0  0  1  0  0  0  0  0  0  0  0
    1.7014    2.4918    4.2449 O   0  0  0  1  0  0  0  0  0  0  0  0
    0.3913    5.3567    2.7430 H   0  0  0  1  0  0  0  0  0  0  0  0
    2.2425    5.8665    0.5472 H   0  0  0  1  0  0  0  0  0  0  0  0
    2.9344    5.8424    2.1514 H   0  0  0  1  0  0  0  0  0  0  0  0
    1.7150    7.0258    1.7432 H   0  0  0  1  0  0  0  0  0  0  0  0
    0.0634    4.5534    5.8299 H   0  0  0  1  0  0  0  0  0  0  0  0
    1.0484    3.2899    6.5270 H   0  0  0  1  0  0  0  0  0  0  0  0
   -0.6395    2.9937    6.1844 H   0  0  0  1  0  0  0  0  0  0  0  0
   -4.4032    8.2433    0.3789 I   0  0  0  1  0  0  0  0  0  0  0  0
   -3.4175    6.4271    0.6918 C   0  0  0  1  0  0  0  0  0  0  0  0
   -2.5641    6.2783    1.7740 C   0  0  0  1  0  0  0  0  0  0  0  0
   -1.9084    5.0788    1.9774 C   0  0  0  1  0  0  0  0  0  0  0  0
   -2.1083    4.0227    1.1021 C   0  0  0  1  0  0  0  0  0  0  0  0
   -2.9591    4.1708    0.0229 C   0  0  0  1  0  0  0  0  0  0  0  0
   -3.6167    5.3740   -0.1809 C   0  0  0  1  0  0  0  0  0  0  0  0
   -1.3965    2.7096    1.3270 C   0  0  0  1  0  0  0  0  0  0  0  0
   -2.4173    7.0693    2.4330 H   0  0  0  1  0  0  0  0  0  0  0  0
   -1.2651    4.9685    2.7871 H   0  0  0  1  0  0  0  0  0  0  0  0
   -3.1058    3.3797   -0.6360 H   0  0  0  1  0  0  0  0  0  0  0  0
   -4.2600    5.4843   -0.9906 H   0  0  0  1  0  0  0  0  0  0  0  0
   -2.0281    2.0760    1.9139 H   0  0  0  1  0  0  0  0  0  0  0  0
   -1.2164    2.2526    0.3764 H   0  0  0  1  0  0  0  0  0  0  0  0
  1  4  1  0  0  0  0
  2  4  1  0  0  0  0
  2  5  2  0  0  0  0
  2  6  1  0  0  0  0
  3  4  1  0  0  0  0
  3  7  1  0  0  0  0
  3  8  1  0  0  0  0
  4 26  1  0  0  0  0
  6  9  1  0  0  0  0
  6 12  1  0  0  0  0
  8 10  1  0  0  0  0
  8 11  2  0  0  0  0
  9 13  1  0  0  0  0
  9 14  1  0  0  0  0
  9 15  1  0  0  0  0
 10 16  1  0  0  0  0
 10 17  1  0  0  0  0
 10 18  1  0  0  0  0
 19 20  1  0  0  0  0
 20 21  4  0  0  0  0
 20 25  4  0  0  0  0
 21 22  4  0  0  0  0
 21 27  1  0  0  0  0
 22 23  4  0  0  0  0
 22 28  1  0  0  0  0
 23 24  4  0  0  0  0
 23 26  1  0  0  0  0
 24 25  4  0  0  0  0
 24 29  1  0  0  0  0
 25 30  1  0  0  0  0
 26 31  1  0  0  0  0
 26 32  1  0  0  0  0
M  END
> <BCLConfClusterSize>
1

> <ConfClashScore>
0.00039674 

> <ConfOneFourInteractionScore>
-0.949633 

> <ConfScore>
0.223282 

> <ConfScorePBest>
0.00290666 

> <ConfTolerance>
0.73259 

> <RosettaParamsInstructions>
M  ROOT 3
M  POLY_N_BB 3
M  POLY_CA_BB 4
M  POLY_C_BB 2
M  POLY_O_BB 5
M  POLY_IGNORE 9 10 11 12 13 14 15 16 17 18 
M  POLY_UPPER 6
M  POLY_LOWER 8
M  POLY_CHG 0
M  POLY_PROPERTIES ALPHA_AA L_AA PROTEIN AROMATIC POLYMER 
M  END

$$$$



 32 32  0  0  0  0  0  0  0  0999 V2000
   -3.0327    1.6080    0.6762 H   0  0  0  1  0  0  0  0  0  0  0  0
   -1.5559    0.2165    1.2472 C   0  0  0  1  0  0  0  0  0  0  0  0
   -3.0228    1.5562    2.7331 N   0  0  0  1  0  0  0  0  0  0  0  0
   -2.3127    1.5237    1.4632 C   0  0  0  1  0  0  0  0  0  0  0  0
   -0.6618    0.1280    0.4074 O   0  0  0  1  0  0  0  0  0  0  0  0
   -1.9290   -0.8052    2.0231 N   0  0  0  1  0  0  0  0  0  0  0  0
   -3.9842    1.7455    2.7510 H   0  0  0  1  0  0  0  0  0  0  0  0
   -2.3604    1.3262    3.8857 C   0  0  0  1  0  0  0  0  0  0  0  0
   -1.1320   -2.0162    2.1502 C   0  0  0  1  0  0  0  0  0  0  0  0
   -3.1909    1.4129    5.1514 C   0  0  0  1  0  0  0  0  0  0  0  0
   -1.1596    1.0617    3.9270 O   0  0  0  1  0  0  0  0  0  0  0  0
   -2.7685   -0.7367    2.5240 H   0  0  0  1  0  0  0  0  0  0  0  0
   -0.0944   -1.7583    2.1912 H   0  0  0  1  0  0  0  0  0  0  0  0
   -1.3088   -2.6495    1.3060 H   0  0  0  1  0  0  0  0  0  0  0  0
   -1.4070   -2.5314    3.0468 H   0  0  0  1  0  0  0  0  0  0  0  0
   -4.1611    1.7982    4.9162 H   0  0  0  1  0  0  0  0  0  0  0  0
   -2.7087    2.0641    5.8502 H   0  0  0  1  0  0  0  0  0  0  0  0
   -3.2891    0.4378    5.5808 H   0  0  0  1  0  0  0  0  0  0  0  0
   -4.4258    8.2225    0.3363 I   0  0  0  1  0  0  0  0  0  0  0  0
   -3.4118    6.4320    0.7024 C   0  0  0  1  0  0  0  0  0  0  0  0
   -2.5563    6.2725    1.7814 C   0  0  0  1  0  0  0  0  0  0  0  0
   -1.9055    5.0688    1.9755 C   0  0  0  1  0  0  0  0  0  0  0  0
   -2.1125    4.0191    1.0942 C   0  0  0  1  0  0  0  0  0  0  0  0
   -2.9655    4.1779    0.0182 C   0  0  0  1  0  0  0  0  0  0  0  0
   -3.6181    5.3853   -0.1764 C   0  0  0  1  0  0  0  0  0  0  0  0
   -1.3811    2.7238    1.3562 C   0  0  0  1  0  0  0  0  0  0  0  0
   -2.4041    7.0588    2.4449 H   0  0  0  1  0  0  0  0  0  0  0  0
   -1.2606    4.9505    2.7828 H   0  0  0  1  0  0  0  0  0  0  0  0
   -3.1176    3.3916   -0.6453 H   0  0  0  1  0  0  0  0  0  0  0  0
   -4.2630    5.5036   -0.9836 H   0  0  0  1  0  0  0  0  0  0  0  0
   -0.6949    2.5518    0.5534 H   0  0  0  1  0  0  0  0  0  0  0  0
   -0.8401    2.8180    2.2745 H   0  0  0  1  0  0  0  0  0  0  0  0
  1  4  1  0  0  0  0
  2  4  1  0  0  0  0
  2  5  2  0  0  0  0
  2  6  1  0  0  0  0
  3  4  1  0  0  0  0
  3  7  1  0  0  0  0
  3  8  1  0  0  0  0
  4 26  1  0  0  0  0
  6  9  1  0  0  0  0
  6 12  1  0  0  0  0
  8 10  1  0  0  0  0
  8 11  2  0  0  0  0
  9 13  1  0  0  0  0
  9 14  1  0  0  0  0
  9 15  1  0  0  0  0
 10 16  1  0  0  0  0
 10 17  1  0  0  0  0
 10 18  1  0  0  0  0
 19 20  1  0  0  0  0
 20 21  4  0  0  0  0
 20 25  4  0  0  0  0
 21 22  4  0  0  0  0
 21 27  1  0  0  0  0
 22 23  4  0  0  0  0
 22 28  1  0  0  0  0
 23 24  4  0  0  0  0
 23 26  1  0  0  0  0
 24 25  4  0  0  0  0
 24 29  1  0  0  0  0
 25 30  1  0  0  0  0
 26 31  1  0  0  0  0
 26 32  1  0  0  0  0
M  END
> <BCLConfClusterSize>
1

> <ConfClashScore>
0 

> <ConfOneFourInteractionScore>
-0.957723 

> <ConfScore>
0.233075 

> <ConfScorePBest>
0.00287818 

> <ConfTolerance>
0.471695 

> <RosettaParamsInstructions>
M  ROOT 3
M  POLY_N_BB 3
M  POLY_CA_BB 4
M  POLY_C_BB 2
M  POLY_O_BB 5
M  POLY_IGNORE 9 10 11 12 13 14 15 16 17 18 
M  POLY_UPPER 6
M  POLY_LOWER 8
M  POLY_CHG 0
M  POLY_PROPERTIES ALPHA_AA L_AA PROTEIN AROMATIC POLYMER 
M  END

$$$$



 32 32  0  0  0  0  0  0  0  0999 V2000
   -3.1682    1.7607    1.9772 H   0  0  0  1  0  0  0  0  0  0  0  0
   -1.6180    0.3593    2.1950 C   0  0  0  1  0  0  0  0  0  0  0  0
   -2.0885    2.3099    3.6403 N   0  0  0  1  0  0  0  0  0  0  0  0
   -2.1440    1.7785    2.2866 C   0  0  0  1  0  0  0  0  0  0  0  0
   -1.0303   -0.0400    1.1909 O   0  0  0  1  0  0  0  0  0  0  0  0
   -1.8368   -0.4143    3.2700 N   0  0  0  1  0  0  0  0  0  0  0  0
   -1.4235    1.9489    4.2631 H   0  0  0  1  0  0  0  0  0  0  0  0
   -2.9125    3.2726    4.0634 C   0  0  0  1  0  0  0  0  0  0  0  0
   -1.2298   -1.7286    3.4185 C   0  0  0  1  0  0  0  0  0  0  0  0
   -2.7789    3.6594    5.5235 C   0  0  0  1  0  0  0  0  0  0  0  0
   -3.7337    3.8217    3.3301 O   0  0  0  1  0  0  0  0  0  0  0  0
   -2.4257   -0.0824    3.9795 H   0  0  0  1  0  0  0  0  0  0  0  0
   -0.3093   -1.7605    2.8740 H   0  0  0  1  0  0  0  0  0  0  0  0
   -1.8958   -2.4739    3.0366 H   0  0  0  1  0  0  0  0  0  0  0  0
   -1.0381   -1.9177    4.4540 H   0  0  0  1  0  0  0  0  0  0  0  0
   -3.0924    2.8426    6.1395 H   0  0  0  1  0  0  0  0  0  0  0  0
   -3.3925    4.5128    5.7237 H   0  0  0  1  0  0  0  0  0  0  0  0
   -1.7575    3.8957    5.7375 H   0  0  0  1  0  0  0  0  0  0  0  0
   -4.4032    8.2433    0.3789 I   0  0  0  1  0  0  0  0  0  0  0  0
   -3.4175    6.4271    0.6918 C   0  0  0  1  0  0  0  0  0  0  0  0
   -2.5641    6.2783    1.7740 C   0  0  0  1  0  0  0  0  0  0  0  0
   -1.9084    5.0788    1.9774 C   0  0  0  1  0  0  0  0  0  0  0  0
   -2.1083    4.0227    1.1021 C   0  0  0  1  0  0  0  0  0  0  0  0
   -2.9591    4.1708    0.0229 C   0  0  0  1  0  0  0  0  0  0  0  0
   -3.6167    5.3740   -0.1809 C   0  0  0  1  0  0  0  0  0  0  0  0
   -1.3965    2.7096    1.3270 C   0  0  0  1  0  0  0  0  0  0  0  0
   -2.4173    7.0693    2.4330 H   0  0  0  1  0  0  0  0  0  0  0  0
   -1.2651    4.9685    2.7871 H   0  0  0  1  0  0  0  0  0  0  0  0
   -3.1058    3.3797   -0.6360 H   0  0  0  1  0  0  0  0  0  0  0  0
   -4.2600    5.4843   -0.9906 H   0  0  0  1  0  0  0  0  0  0  0  0
   -1.2907    2.2138    0.3847 H   0  0  0  1  0  0  0  0  0  0  0  0
   -0.4282    2.9125    1.7345 H   0  0  0  1  0  0  0  0  0  0  0  0
  1  4  1  0  0  0  0
  2  4  1  0  0  0  0
  2  5  2  0  0  0  0
  2  6  1  0  0  0  0
  3  4  1  0  0  0  0
  3  7  1  0  0  0  0
  3  8  1  0  0  0  0
  4 26  1  0  0  0  0
  6  9  1  0  0  0  0
  6 12  1  0  0  0  0
  8 10  1  0  0  0  0
  8 11  2  0  0  0  0
  9 13  1  0  0  0  0
  9 14  1  0  0  0  0
  9 15  1  0  0  0  0
 10 16  1  0  0  0  0
 10 17  1  0  0  0  0
 10 18  1  0  0  0  0
 19 20  1  0  0  0  0
 20 21  4  0  0  0  0
 20 25  4  0  0  0  0
 21 22  4  0  0  0  0
 21 27  1  0  0  0  0
 22 23  4  0  0  0  0
 22 28  1  0  0  0  0
 23 24  4  0  0  0  0
 23 26  1  0  0  0  0
 24 25  4  0  0  0  0
 24 29  1  0  0  0  0
 25 30  1  0  0  0  0
 26 31  1  0  0  0  0
 26 32  1  0  0  0  0
M  END
> <BCLConfClusterSize>
1

> <ConfClashScore>
0 

> <ConfOneFourInteractionScore>
-0.956733 

> <ConfScore>
0.239389 

> <ConfScorePBest>
0.0028497 

> <ConfTolerance>
0.761721 

> <RosettaParamsInstructions>
M  ROOT 3
M  POLY_N_BB 3
M  POLY_CA_BB 4
M  POLY_C_BB 2
M  POLY_O_BB 5
M  POLY_IGNORE 9 10 11 12 13 14 15 16 17 18 
M  POLY_UPPER 6
M  POLY_LOWER 8
M  POLY_CHG 0
M  POLY_PROPERTIES ALPHA_AA L_AA PROTEIN AROMATIC POLYMER 
M  END

$$$$



 32 32  0  0  0  0  0  0  0  0999 V2000
   -0.4249    3.0319    3.1782 H   0  0  0  1  0  0  0  0  0  0  0  0
    0.5731    1.4475    2.2044 C   0  0  0  1  0  0  0  0  0  0  0  0
    0.7629    3.8197    1.6809 N   0  0  0  1  0  0  0  0  0  0  0  0
   -0.1354    2.7879    2.1774 C   0  0  0  1  0  0  0  0  0  0  0  0
   -0.0584    0.3917    2.2095 O   0  0  0  1  0  0  0  0  0  0  0  0
    1.9145    1.4971    2.2219 N   0  0  0  1  0  0  0  0  0  0  0  0
    0.9848    4.6011    2.2292 H   0  0  0  1  0  0  0  0  0  0  0  0
    1.2801    3.6702    0.4474 C   0  0  0  1  0  0  0  0  0  0  0  0
    2.7379    0.3013    2.1233 C   0  0  0  1  0  0  0  0  0  0  0  0
    2.1007    4.8362   -0.0685 C   0  0  0  1  0  0  0  0  0  0  0  0
    1.1091    2.6613   -0.2317 O   0  0  0  1  0  0  0  0  0  0  0  0
    2.3545    2.3689    2.3040 H   0  0  0  1  0  0  0  0  0  0  0  0
    3.5461    0.4791    1.4450 H   0  0  0  1  0  0  0  0  0  0  0  0
    2.1433   -0.5123    1.7637 H   0  0  0  1  0  0  0  0  0  0  0  0
    3.1299    0.0578    3.0887 H   0  0  0  1  0  0  0  0  0  0  0  0
    1.4523    5.6565   -0.2958 H   0  0  0  1  0  0  0  0  0  0  0  0
    2.6241    4.5399   -0.9535 H   0  0  0  1  0  0  0  0  0  0  0  0
    2.8048    5.1352    0.6796 H   0  0  0  1  0  0  0  0  0  0  0  0
   -4.4032    8.2433    0.3789 I   0  0  0  1  0  0  0  0  0  0  0  0
   -3.4175    6.4271    0.6918 C   0  0  0  1  0  0  0  0  0  0  0  0
   -2.5641    6.2783    1.7740 C   0  0  0  1  0  0  0  0  0  0  0  0
   -1.9084    5.0788    1.9774 C   0  0  0  1  0  0  0  0  0  0  0  0
   -2.1083    4.0227    1.1021 C   0  0  0  1  0  0  0  0  0  0  0  0
   -2.9591    4.1708    0.0229 C   0  0  0  1  0  0  0  0  0  0  0  0
   -3.6167    5.3740   -0.1809 C   0  0  0  1  0  0  0  0  0  0  0  0
   -1.3965    2.7096    1.3270 C   0  0  0  1  0  0  0  0  0  0  0  0
   -2.4173    7.0693    2.4330 H   0  0  0  1  0  0  0  0  0  0  0  0
   -1.2651    4.9685    2.7871 H   0  0  0  1  0  0  0  0  0  0  0  0
   -3.1058    3.3797   -0.6360 H   0  0  0  1  0  0  0  0  0  0  0  0
   -4.2600    5.4843   -0.9906 H   0  0  0  1  0  0  0  0  0  0  0  0
   -2.0795    2.0424    1.8101 H   0  0  0  1  0  0  0  0  0  0  0  0
   -1.1257    2.3129    0.3708 H   0  0  0  1  0  0  0  0  0  0  0  0
  1  4  1  0  0  0  0
  2  4  1  0  0  0  0
  2  5  2  0  0  0  0
  2  6  1  0  0  0  0
  3  4  1  0  0  0  0
  3  7  1  0  0  0  0
  3  8  1  0  0  0  0
  4 26  1  0  0  0  0
  6  9  1  0  0  0  0
  6 12  1  0  0  0  0
  8 10  1  0  0  0  0
  8 11  2  0  0  0  0
  9 13  1  0  0  0  0
  9 14  1  0  0  0  0
  9 15  1  0  0  0  0
 10 16  1  0  0  0  0
 10 17  1  0  0  0  0
 10 18  1  0  0  0  0
 19 20  1  0  0  0  0
 20 21  4  0  0  0  0
 20 25  4  0  0  0  0
 21 22  4  0  0  0  0
 21 27  1  0  0  0  0
 22 23  4  0  0  0  0
 22 28  1  0  0  0  0
 23 24  4  0  0  0  0
 23 26  1  0  0  0  0
 24 25  4  0  0  0  0
 24 29  1  0  0  0  0
 25 30  1  0  0  0  0
 26 31  1  0  0  0  0
 26 32  1  0  0  0  0
M  END
> <BCLConfClusterSize>
1

> <ConfClashScore>
0 

> <ConfOneFourInteractionScore>
-0.931255 

> <ConfScore>
0.240725 

> <ConfScorePBest>
0.00282122 

> <ConfTolerance>
0.610579 

> <RosettaParamsInstructions>
M  ROOT 3
M  POLY_N_BB 3
M  POLY_CA_BB 4
M  POLY_C_BB 2
M  POLY_O_BB 5
M  POLY_IGNORE 9 10 11 12 13 14 15 16 17 18 
M  POLY_UPPER 6
M  POLY_LOWER 8
M  POLY_CHG 0
M  POLY_PROPERTIES ALPHA_AA L_AA PROTEIN AROMATIC POLYMER 
M  END

$$$$



 32 32  0  0  0  0  0  0  0  0999 V2000
    0.2545    3.5480    0.3306 H   0  0  0  1  0  0  0  0  0  0  0  0
    1.0041    2.0237    1.5671 C   0  0  0  1  0  0  0  0  0  0  0  0
   -0.2087    1.7577   -0.5713 N   0  0  0  1  0  0  0  0  0  0  0  0
   -0.0546    2.5677    0.6279 C   0  0  0  1  0  0  0  0  0  0  0  0
    1.2352    0.8277    1.6361 O   0  0  0  1  0  0  0  0  0  0  0  0
    1.6560    2.9377    2.3032 N   0  0  0  1  0  0  0  0  0  0  0  0
   -1.0254    1.2329   -0.7053 H   0  0  0  1  0  0  0  0  0  0  0  0
    0.7691    1.7278   -1.4977 C   0  0  0  1  0  0  0  0  0  0  0  0
    2.7491    2.6449    3.2182 C   0  0  0  1  0  0  0  0  0  0  0  0
    0.6084    0.6084   -2.5238 C   0  0  0  1  0  0  0  0  0  0  0  0
    1.7080    2.5056   -1.5417 O   0  0  0  1  0  0  0  0  0  0  0  0
    1.3745    3.8725    2.2179 H   0  0  0  1  0  0  0  0  0  0  0  0
    3.3878    3.4998    3.2969 H   0  0  0  1  0  0  0  0  0  0  0  0
    3.3110    1.8132    2.8476 H   0  0  0  1  0  0  0  0  0  0  0  0
    2.3523    2.4065    4.1829 H   0  0  0  1  0  0  0  0  0  0  0  0
    1.1425   -0.2581   -2.1937 H   0  0  0  1  0  0  0  0  0  0  0  0
    0.9991    0.9302   -3.4665 H   0  0  0  1  0  0  0  0  0  0  0  0
   -0.4289    0.3686   -2.6301 H   0  0  0  1  0  0  0  0  0  0  0  0
   -4.3790    8.2629    0.4232 I   0  0  0  1  0  0  0  0  0  0  0  0
   -3.4231    6.4223    0.6814 C   0  0  0  1  0  0  0  0  0  0  0  0
   -2.5710    6.2797    1.7654 C   0  0  0  1  0  0  0  0  0  0  0  0
   -1.9124    5.0827    1.9742 C   0  0  0  1  0  0  0  0  0  0  0  0
   -2.1081    4.0229    1.1024 C   0  0  0  1  0  0  0  0  0  0  0  0
   -2.9577    4.1649    0.0214 C   0  0  0  1  0  0  0  0  0  0  0  0
   -3.6181    5.3656   -0.1878 C   0  0  0  1  0  0  0  0  0  0  0  0
   -1.3932    2.7125    1.3331 C   0  0  0  1  0  0  0  0  0  0  0  0
   -2.4273    7.0735    2.4218 H   0  0  0  1  0  0  0  0  0  0  0  0
   -1.2701    4.9771    2.7853 H   0  0  0  1  0  0  0  0  0  0  0  0
   -3.1013    3.3710   -0.6349 H   0  0  0  1  0  0  0  0  0  0  0  0
   -4.2605    5.4712   -0.9989 H   0  0  0  1  0  0  0  0  0  0  0  0
   -1.2251    2.6090    2.3848 H   0  0  0  1  0  0  0  0  0  0  0  0
   -2.0320    1.9239    0.9941 H   0  0  0  1  0  0  0  0  0  0  0  0
  1  4  1  0  0  0  0
  2  4  1  0  0  0  0
  2  5  2  0  0  0  0
  2  6  1  0  0  0  0
  3  4  1  0  0  0  0
  3  7  1  0  0  0  0
  3  8  1  0  0  0  0
  4 26  1  0  0  0  0
  6  9  1  0  0  0  0
  6 12  1  0  0  0  0
  8 10  1  0  0  0  0
  8 11  2  0  0  0  0
  9 13  1  0  0  0  0
  9 14  1  0  0  0  0
  9 15  1  0  0  0  0
 10 16  1  0  0  0  0
 10 17  1  0  0  0  0
 10 18  1  0  0  0  0
 19 20  1  0  0  0  0
 20 21  4  0  0  0  0
 20 25  4  0  0  0  0
 21 22  4  0  0  0  0
 21 27  1  0  0  0  0
 22 23  4  0  0  0  0
 22 28  1  0  0  0  0
 23 24  4  0  0  0  0
 23 26  1  0  0  0  0
 24 25  4  0  0  0  0
 24 29  1  0  0  0  0
 25 30  1  0  0  0  0
 26 31  1  0  0  0  0
 26 32  1  0  0  0  0
M  END
> <BCLConfClusterSize>
1

> <ConfClashScore>
0 

> <ConfOneFourInteractionScore>
-0.970447 

> <ConfScore>
0.255586 

> <ConfScorePBest>
0.00279274 

> <ConfTolerance>
0.843606 

> <RosettaParamsInstructions>
M  ROOT 3
M  POLY_N_BB 3
M  POLY_CA_BB 4
M  POLY_C_BB 2
M  POLY_O_BB 5
M  POLY_IGNORE 9 10 11 12 13 14 15 16 17 18 
M  POLY_UPPER 6
M  POLY_LOWER 8
M  POLY_CHG 0
M  POLY_PROPERTIES ALPHA_AA L_AA PROTEIN AROMATIC POLYMER 
M  END

$$$$



 32 32  0  0  0  0  0  0  0  0999 V2000
    0.5095    3.4237    0.6964 H   0  0  0  1  0  0  0  0  0  0  0  0
    0.6278    1.3158    0.9430 C   0  0  0  1  0  0  0  0  0  0  0  0
   -0.4332    2.5149   -0.9132 N   0  0  0  1  0  0  0  0  0  0  0  0
   -0.1120    2.5744    0.5030 C   0  0  0  1  0  0  0  0  0  0  0  0
    1.5157    0.8311    0.2465 O   0  0  0  1  0  0  0  0  0  0  0  0
    0.2779    0.7524    2.1179 N   0  0  0  1  0  0  0  0  0  0  0  0
   -1.3799    2.5443   -1.1647 H   0  0  0  1  0  0  0  0  0  0  0  0
    0.4650    2.4231   -1.8981 C   0  0  0  1  0  0  0  0  0  0  0  0
    1.0791   -0.3576    2.6116 C   0  0  0  1  0  0  0  0  0  0  0  0
   -0.1037    2.5652   -3.3080 C   0  0  0  1  0  0  0  0  0  0  0  0
    1.6550    2.1682   -1.7174 O   0  0  0  1  0  0  0  0  0  0  0  0
   -0.4938    1.0814    2.6245 H   0  0  0  1  0  0  0  0  0  0  0  0
    1.0887   -0.3431    3.6815 H   0  0  0  1  0  0  0  0  0  0  0  0
    2.0801   -0.2655    2.2450 H   0  0  0  1  0  0  0  0  0  0  0  0
    0.6576   -1.2804    2.2715 H   0  0  0  1  0  0  0  0  0  0  0  0
   -0.6781    3.4658   -3.3724 H   0  0  0  1  0  0  0  0  0  0  0  0
   -0.7310    1.7261   -3.5256 H   0  0  0  1  0  0  0  0  0  0  0  0
    0.6993    2.6035   -4.0141 H   0  0  0  1  0  0  0  0  0  0  0  0
   -4.4032    8.2433    0.3789 I   0  0  0  1  0  0  0  0  0  0  0  0
   -3.4175    6.4271    0.6918 C   0  0  0  1  0  0  0  0  0  0  0  0
   -2.5641    6.2783    1.7740 C   0  0  0  1  0  0  0  0  0  0  0  0
   -1.9084    5.0788    1.9774 C   0  0  0  1  0  0  0  0  0  0  0  0
   -2.1083    4.0227    1.1021 C   0  0  0  1  0  0  0  0  0  0  0  0
   -2.9591    4.1708    0.0229 C   0  0  0  1  0  0  0  0  0  0  0  0
   -3.6167    5.3740   -0.1809 C   0  0  0  1  0  0  0  0  0  0  0  0
   -1.3965    2.7096    1.3270 C   0  0  0  1  0  0  0  0  0  0  0  0
   -2.4173    7.0693    2.4330 H   0  0  0  1  0  0  0  0  0  0  0  0
   -1.2651    4.9685    2.7871 H   0  0  0  1  0  0  0  0  0  0  0  0
   -3.1058    3.3797   -0.6360 H   0  0  0  1  0  0  0  0  0  0  0  0
   -4.2600    5.4843   -0.9906 H   0  0  0  1  0  0  0  0  0  0  0  0
   -1.1456    2.6315    2.3642 H   0  0  0  1  0  0  0  0  0  0  0  0
   -2.0586    1.9130    1.0588 H   0  0  0  1  0  0  0  0  0  0  0  0
  1  4  1  0  0  0  0
  2  4  1  0  0  0  0
  2  5  2  0  0  0  0
  2  6  1  0  0  0  0
  3  4  1  0  0  0  0
  3  7  1  0  0  0  0
  3  8  1  0  0  0  0
  4 26  1  0  0  0  0
  6  9  1  0  0  0  0
  6 12  1  0  0  0  0
  8 10  1  0  0  0  0
  8 11  2  0  0  0  0
  9 13  1  0  0  0  0
  9 14  1  0  0  0  0
  9 15  1  0  0  0  0
 10 16  1  0  0  0  0
 10 17  1  0  0  0  0
 10 18  1  0  0  0  0
 19 20  1  0  0  0  0
 20 21  4  0  0  0  0
 20 25  4  0  0  0  0
 21 22  4  0  0  0  0
 21 27  1  0  0  0  0
 22 23  4  0  0  0  0
 22 28  1  0  0  0  0
 23 24  4  0  0  0  0
 23 26  1  0  0  0  0
 24 25  4  0  0  0  0
 24 29  1  0  0  0  0
 25 30  1  0  0  0  0
 26 31  1  0  0  0  0
 26 32  1  0  0  0  0
M  END
> <BCLConfClusterSize>
1

> <ConfClashScore>
2.4592e-05 

> <ConfOneFourInteractionScore>
-0.948666 

> <ConfScore>
0.260276 

> <ConfScorePBest>
0.00276426 

> <ConfTolerance>
0.727256 

> <RosettaParamsInstructions>
M  ROOT 3
M  POLY_N_BB 3
M  POLY_CA_BB 4
M  POLY_C_BB 2
M  POLY_O_BB 5
M  POLY_IGNORE 9 10 11 12 13 14 15 16 17 18 
M  POLY_UPPER 6
M  POLY_LOWER 8
M  POLY_CHG 0
M  POLY_PROPERTIES ALPHA_AA L_AA PROTEIN AROMATIC POLYMER 
M  END

$$$$



 32 32  0  0  0  0  0  0  0  0999 V2000
    0.4431    1.7429    0.8995 H   0  0  0  1  0  0  0  0  0  0  0  0
   -0.3884    2.3489   -0.9438 C   0  0  0  1  0  0  0  0  0  0  0  0
    0.7213    3.7805    0.6860 N   0  0  0  1  0  0  0  0  0  0  0  0
   -0.0964    2.5875    0.5249 C   0  0  0  1  0  0  0  0  0  0  0  0
   -0.4681    1.2194   -1.3981 O   0  0  0  1  0  0  0  0  0  0  0  0
   -0.5496    3.4511   -1.6930 N   0  0  0  1  0  0  0  0  0  0  0  0
    0.6889    4.4732   -0.0066 H   0  0  0  1  0  0  0  0  0  0  0  0
    1.5147    3.9643    1.7451 C   0  0  0  1  0  0  0  0  0  0  0  0
   -0.8681    3.3871   -3.1115 C   0  0  0  1  0  0  0  0  0  0  0  0
    2.2829    5.2809    1.7767 C   0  0  0  1  0  0  0  0  0  0  0  0
    1.6308    3.1356    2.6469 O   0  0  0  1  0  0  0  0  0  0  0  0
   -0.4493    4.3293   -1.2699 H   0  0  0  1  0  0  0  0  0  0  0  0
   -1.4272    4.2554   -3.3916 H   0  0  0  1  0  0  0  0  0  0  0  0
   -1.4496    2.5104   -3.3071 H   0  0  0  1  0  0  0  0  0  0  0  0
    0.0382    3.3485   -3.6789 H   0  0  0  1  0  0  0  0  0  0  0  0
    3.3167    5.0866    1.9728 H   0  0  0  1  0  0  0  0  0  0  0  0
    1.8855    5.9070    2.5480 H   0  0  0  1  0  0  0  0  0  0  0  0
    2.1858    5.7730    0.8316 H   0  0  0  1  0  0  0  0  0  0  0  0
   -4.4282    8.2202    0.3317 I   0  0  0  1  0  0  0  0  0  0  0  0
   -3.4115    6.4323    0.7029 C   0  0  0  1  0  0  0  0  0  0  0  0
   -2.5568    6.2769    1.7831 C   0  0  0  1  0  0  0  0  0  0  0  0
   -1.9042    5.0747    1.9808 C   0  0  0  1  0  0  0  0  0  0  0  0
   -2.1085    4.0226    1.1017 C   0  0  0  1  0  0  0  0  0  0  0  0
   -2.9606    4.1774    0.0245 C   0  0  0  1  0  0  0  0  0  0  0  0
   -3.6151    5.3832   -0.1735 C   0  0  0  1  0  0  0  0  0  0  0  0
   -1.4001    2.7066    1.3203 C   0  0  0  1  0  0  0  0  0  0  0  0
   -2.4067    7.0649    2.4450 H   0  0  0  1  0  0  0  0  0  0  0  0
   -1.2599    4.9595    2.7890 H   0  0  0  1  0  0  0  0  0  0  0  0
   -3.1108    3.3893   -0.6372 H   0  0  0  1  0  0  0  0  0  0  0  0
   -4.2595    5.4985   -0.9817 H   0  0  0  1  0  0  0  0  0  0  0  0
   -1.1737    2.6106    2.3617 H   0  0  0  1  0  0  0  0  0  0  0  0
   -2.0544    1.9141    1.0225 H   0  0  0  1  0  0  0  0  0  0  0  0
  1  4  1  0  0  0  0
  2  4  1  0  0  0  0
  2  5  2  0  0  0  0
  2  6  1  0  0  0  0
  3  4  1  0  0  0  0
  3  7  1  0  0  0  0
  3  8  1  0  0  0  0
  4 26  1  0  0  0  0
  6  9  1  0  0  0  0
  6 12  1  0  0  0  0
  8 10  1  0  0  0  0
  8 11  2  0  0  0  0
  9 13  1  0  0  0  0
  9 14  1  0  0  0  0
  9 15  1  0  0  0  0
 10 16  1  0  0  0  0
 10 17  1  0  0  0  0
 10 18  1  0  0  0  0
 19 20  1  0  0  0  0
 20 21  4  0  0  0  0
 20 25  4  0  0  0  0
 21 22  4  0  0  0  0
 21 27  1  0  0  0  0
 22 23  4  0  0  0  0
 22 28  1  0  0  0  0
 23 24  4  0  0  0  0
 23 26  1  0  0  0  0
 24 25  4  0  0  0  0
 24 29  1  0  0  0  0
 25 30  1  0  0  0  0
 26 31  1  0  0  0  0
 26 32  1  0  0  0  0
M  END
> <BCLConfClusterSize>
1

> <ConfClashScore>
0 

> <ConfOneFourInteractionScore>
-0.936632 

> <ConfScore>
0.266418 

> <ConfScorePBest>
0.00273578 

> <ConfTolerance>
0.734602 

> <RosettaParamsInstructions>
M  ROOT 3
M  POLY_N_BB 3
M  POLY_CA_BB 4
M  POLY_C_BB 2
M  POLY_O_BB 5
M  POLY_IGNORE 9 10 11 12 13 14 15 16 17 18 
M  POLY_UPPER 6
M  POLY_LOWER 8
M  POLY_CHG 0
M  POLY_PROPERTIES ALPHA_AA L_AA PROTEIN AROMATIC POLYMER 
M  END

$$$$



 32 32  0  0  0  0  0  0  0  0999 V2000
   -3.1315    1.5501    1.8189 H   0  0  0  1  0  0  0  0  0  0  0  0
   -1.4938    0.3849    2.4334 C   0  0  0  1  0  0  0  0  0  0  0  0
   -2.4112    2.3902    3.5526 N   0  0  0  1  0  0  0  0  0  0  0  0
   -2.1793    1.7333    2.2712 C   0  0  0  1  0  0  0  0  0  0  0  0
   -1.3642   -0.3771    1.4895 O   0  0  0  1  0  0  0  0  0  0  0  0
   -1.0506    0.1008    3.6683 N   0  0  0  1  0  0  0  0  0  0  0  0
   -3.3013    2.3634    3.9618 H   0  0  0  1  0  0  0  0  0  0  0  0
   -1.4127    3.0284    4.1697 C   0  0  0  1  0  0  0  0  0  0  0  0
   -0.4533   -1.1832    4.0036 C   0  0  0  1  0  0  0  0  0  0  0  0
   -1.8093    3.8705    5.3667 C   0  0  0  1  0  0  0  0  0  0  0  0
   -0.2405    2.9499    3.8045 O   0  0  0  1  0  0  0  0  0  0  0  0
   -1.1321    0.7818    4.3683 H   0  0  0  1  0  0  0  0  0  0  0  0
    0.2793   -1.0467    4.7714 H   0  0  0  1  0  0  0  0  0  0  0  0
    0.0140   -1.5968    3.1345 H   0  0  0  1  0  0  0  0  0  0  0  0
   -1.2142   -1.8502    4.3516 H   0  0  0  1  0  0  0  0  0  0  0  0
   -2.8714    3.9999    5.3762 H   0  0  0  1  0  0  0  0  0  0  0  0
   -1.3342    4.8271    5.3027 H   0  0  0  1  0  0  0  0  0  0  0  0
   -1.5021    3.3786    6.2660 H   0  0  0  1  0  0  0  0  0  0  0  0
   -4.4198    8.2362    0.3925 I   0  0  0  1  0  0  0  0  0  0  0  0
   -3.4203    6.4256    0.6938 C   0  0  0  1  0  0  0  0  0  0  0  0
   -2.5620    6.2780    1.7722 C   0  0  0  1  0  0  0  0  0  0  0  0
   -1.8972    5.0822    1.9680 C   0  0  0  1  0  0  0  0  0  0  0  0
   -2.0930    4.0286    1.0888 C   0  0  0  1  0  0  0  0  0  0  0  0
   -2.9488    4.1755    0.0135 C   0  0  0  1  0  0  0  0  0  0  0  0
   -3.6155    5.3749   -0.1827 C   0  0  0  1  0  0  0  0  0  0  0  0
   -1.4419    2.6948    1.3692 C   0  0  0  1  0  0  0  0  0  0  0  0
   -2.4182    7.0672    2.4341 H   0  0  0  1  0  0  0  0  0  0  0  0
   -1.2501    4.9729    2.7748 H   0  0  0  1  0  0  0  0  0  0  0  0
   -3.0926    3.3862   -0.6483 H   0  0  0  1  0  0  0  0  0  0  0  0
   -4.2626    5.4842   -0.9895 H   0  0  0  1  0  0  0  0  0  0  0  0
   -1.2976    2.2050    0.4288 H   0  0  0  1  0  0  0  0  0  0  0  0
   -0.4912    2.8910    1.8193 H   0  0  0  1  0  0  0  0  0  0  0  0
  1  4  1  0  0  0  0
  2  4  1  0  0  0  0
  2  5  2  0  0  0  0
  2  6  1  0  0  0  0
  3  4  1  0  0  0  0
  3  7  1  0  0  0  0
  3  8  1  0  0  0  0
  4 26  1  0  0  0  0
  6  9  1  0  0  0  0
  6 12  1  0  0  0  0
  8 10  1  0  0  0  0
  8 11  2  0  0  0  0
  9 13  1  0  0  0  0
  9 14  1  0  0  0  0
  9 15  1  0  0  0  0
 10 16  1  0  0  0  0
 10 17  1  0  0  0  0
 10 18  1  0  0  0  0
 19 20  1  0  0  0  0
 20 21  4  0  0  0  0
 20 25  4  0  0  0  0
 21 22  4  0  0  0  0
 21 27  1  0  0  0  0
 22 23  4  0  0  0  0
 22 28  1  0  0  0  0
 23 24  4  0  0  0  0
 23 26  1  0  0  0  0
 24 25  4  0  0  0  0
 24 29  1  0  0  0  0
 25 30  1  0  0  0  0
 26 31  1  0  0  0  0
 26 32  1  0  0  0  0
M  END
> <BCLConfClusterSize>
1

> <ConfClashScore>
0 

> <ConfOneFourInteractionScore>
-0.958711 

> <ConfScore>
0.277021 

> <ConfScorePBest>
0.0027073 

> <ConfTolerance>
0.718941 

> <RosettaParamsInstructions>
M  ROOT 3
M  POLY_N_BB 3
M  POLY_CA_BB 4
M  POLY_C_BB 2
M  POLY_O_BB 5
M  POLY_IGNORE 9 10 11 12 13 14 15 16 17 18 
M  POLY_UPPER 6
M  POLY_LOWER 8
M  POLY_CHG 0
M  POLY_PROPERTIES ALPHA_AA L_AA PROTEIN AROMATIC POLYMER 
M  END

$$$$



 32 32  0  0  0  0  0  0  0  0999 V2000
   -0.1395    2.6123   -0.3671 H   0  0  0  1  0  0  0  0  0  0  0  0
    0.8437    3.7835    1.0882 C   0  0  0  1  0  0  0  0  0  0  0  0
    0.6322    1.3561    1.0825 N   0  0  0  1  0  0  0  0  0  0  0  0
   -0.0182    2.5992    0.6959 C   0  0  0  1  0  0  0  0  0  0  0  0
    0.8532    4.8155    0.4190 O   0  0  0  1  0  0  0  0  0  0  0  0
    1.5815    3.6255    2.1985 N   0  0  0  1  0  0  0  0  0  0  0  0
    1.1089    1.3178    1.9379 H   0  0  0  1  0  0  0  0  0  0  0  0
    0.6009    0.2239    0.2827 C   0  0  0  1  0  0  0  0  0  0  0  0
    2.4886    4.6555    2.6822 C   0  0  0  1  0  0  0  0  0  0  0  0
    1.3149   -1.0158    0.7433 C   0  0  0  1  0  0  0  0  0  0  0  0
   -0.0069    0.2722   -0.7711 O   0  0  0  1  0  0  0  0  0  0  0  0
    1.5067    2.7873    2.7008 H   0  0  0  1  0  0  0  0  0  0  0  0
    2.4858    4.6602    3.7522 H   0  0  0  1  0  0  0  0  0  0  0  0
    2.1687    5.6105    2.3208 H   0  0  0  1  0  0  0  0  0  0  0  0
    3.4783    4.4533    2.3293 H   0  0  0  1  0  0  0  0  0  0  0  0
    2.3438   -0.7875    0.9284 H   0  0  0  1  0  0  0  0  0  0  0  0
    1.2475   -1.7683   -0.0144 H   0  0  0  1  0  0  0  0  0  0  0  0
    0.8618   -1.3743    1.6439 H   0  0  0  1  0  0  0  0  0  0  0  0
   -4.4032    8.2433    0.3789 I   0  0  0  1  0  0  0  0  0  0  0  0
   -3.4175    6.4271    0.6918 C   0  0  0  1  0  0  0  0  0  0  0  0
   -2.5641    6.2783    1.7740 C   0  0  0  1  0  0  0  0  0  0  0  0
   -1.9084    5.0788    1.9774 C   0  0  0  1  0  0  0  0  0  0  0  0
   -2.1083    4.0227    1.1021 C   0  0  0  1  0  0  0  0  0  0  0  0
   -2.9591    4.1708    0.0229 C   0  0  0  1  0  0  0  0  0  0  0  0
   -3.6167    5.3740   -0.1809 C   0  0  0  1  0  0  0  0  0  0  0  0
   -1.3965    2.7096    1.3270 C   0  0  0  1  0  0  0  0  0  0  0  0
   -2.4173    7.0693    2.4330 H   0  0  0  1  0  0  0  0  0  0  0  0
   -1.2651    4.9685    2.7871 H   0  0  0  1  0  0  0  0  0  0  0  0
   -3.1058    3.3797   -0.6360 H   0  0  0  1  0  0  0  0  0  0  0  0
   -4.2600    5.4843   -0.9906 H   0  0  0  1  0  0  0  0  0  0  0  0
   -1.2886    2.5691    2.3822 H   0  0  0  1  0  0  0  0  0  0  0  0
   -2.0077    1.9295    0.9235 H   0  0  0  1  0  0  0  0  0  0  0  0
  1  4  1  0  0  0  0
  2  4  1  0  0  0  0
  2  5  2  0  0  0  0
  2  6  1  0  0  0  0
  3  4  1  0  0  0  0
  3  7  1  0  0  0  0
  3  8  1  0  0  0  0
  4 26  1  0  0  0  0
  6  9  1  0  0  0  0
  6 12  1  0  0  0  0
  8 10  1  0  0  0  0
  8 11  2  0  0  0  0
  9 13  1  0  0  0  0
  9 14  1  0  0  0  0
  9 15  1  0  0  0  0
 10 16  1  0  0  0  0
 10 17  1  0  0  0  0
 10 18  1  0  0  0  0
 19 20  1  0  0  0  0
 20 21  4  0  0  0  0
 20 25  4  0  0  0  0
 21 22  4  0  0  0  0
 21 27  1  0  0  0  0
 22 23  4  0  0  0  0
 22 28  1  0  0  0  0
 23 24  4  0  0  0  0
 23 26  1  0  0  0  0
 24 25  4  0  0  0  0
 24 29  1  0  0  0  0
 25 30  1  0  0  0  0
 26 31  1  0  0  0  0
 26 32  1  0  0  0  0
M  END
> <BCLConfClusterSize>
1

> <ConfClashScore>
0 

> <ConfOneFourInteractionScore>
-0.965014 

> <ConfScore>
0.284302 

> <ConfScorePBest>
0.00267882 

> <ConfTolerance>
0.3483 

> <RosettaParamsInstructions>
M  ROOT 3
M  POLY_N_BB 3
M  POLY_CA_BB 4
M  POLY_C_BB 2
M  POLY_O_BB 5
M  POLY_IGNORE 9 10 11 12 13 14 15 16 17 18 
M  POLY_UPPER 6
M  POLY_LOWER 8
M  POLY_CHG 0
M  POLY_PROPERTIES ALPHA_AA L_AA PROTEIN AROMATIC POLYMER 
M  END

$$$$



 32 32  0  0  0  0  0  0  0  0999 V2000
   -1.9708    2.3766    3.3469 H   0  0  0  1  0  0  0  0  0  0  0  0
   -3.5586    1.6489    2.1865 C   0  0  0  1  0  0  0  0  0  0  0  0
   -1.4179    0.5505    2.5890 N   0  0  0  1  0  0  0  0  0  0  0  0
   -2.0638    1.8547    2.4174 C   0  0  0  1  0  0  0  0  0  0  0  0
   -4.2932    2.5863    1.9216 O   0  0  0  1  0  0  0  0  0  0  0  0
   -3.9968    0.3846    2.2943 N   0  0  0  1  0  0  0  0  0  0  0  0
   -1.5213   -0.1405    1.9018 H   0  0  0  1  0  0  0  0  0  0  0  0
   -0.6854    0.3005    3.6850 C   0  0  0  1  0  0  0  0  0  0  0  0
   -5.3179   -0.0218    1.8388 C   0  0  0  1  0  0  0  0  0  0  0  0
    0.0113   -1.0278    3.7813 C   0  0  0  1  0  0  0  0  0  0  0  0
   -0.5853    1.1323    4.5859 O   0  0  0  1  0  0  0  0  0  0  0  0
   -3.4065   -0.2881    2.6936 H   0  0  0  1  0  0  0  0  0  0  0  0
   -5.3261   -1.0772    1.6632 H   0  0  0  1  0  0  0  0  0  0  0  0
   -5.5557    0.4924    0.9311 H   0  0  0  1  0  0  0  0  0  0  0  0
   -6.0431    0.2207    2.5872 H   0  0  0  1  0  0  0  0  0  0  0  0
    0.4711   -1.1210    4.7430 H   0  0  0  1  0  0  0  0  0  0  0  0
    0.7605   -1.0933    3.0202 H   0  0  0  1  0  0  0  0  0  0  0  0
   -0.7017   -1.8146    3.6494 H   0  0  0  1  0  0  0  0  0  0  0  0
   -4.4007    8.2454    0.3836 I   0  0  0  1  0  0  0  0  0  0  0  0
   -3.4178    6.4267    0.6912 C   0  0  0  1  0  0  0  0  0  0  0  0
   -2.5636    6.2739    1.7722 C   0  0  0  1  0  0  0  0  0  0  0  0
   -1.9097    5.0728    1.9721 C   0  0  0  1  0  0  0  0  0  0  0  0
   -2.1123    4.0191    1.0945 C   0  0  0  1  0  0  0  0  0  0  0  0
   -2.9639    4.1713    0.0166 C   0  0  0  1  0  0  0  0  0  0  0  0
   -3.6196    5.3760   -0.1838 C   0  0  0  1  0  0  0  0  0  0  0  0
   -1.3776    2.7270    1.3628 C   0  0  0  1  0  0  0  0  0  0  0  0
   -2.4148    7.0632    2.4329 H   0  0  0  1  0  0  0  0  0  0  0  0
   -1.2658    4.9596    2.7809 H   0  0  0  1  0  0  0  0  0  0  0  0
   -3.1127    3.3820   -0.6441 H   0  0  0  1  0  0  0  0  0  0  0  0
   -4.2635    5.4893   -0.9926 H   0  0  0  1  0  0  0  0  0  0  0  0
   -1.3178    2.1732    0.4492 H   0  0  0  1  0  0  0  0  0  0  0  0
   -0.3907    2.9608    1.7039 H   0  0  0  1  0  0  0  0  0  0  0  0
  1  4  1  0  0  0  0
  2  4  1  0  0  0  0
  2  5  2  0  0  0  0
  2  6  1  0  0  0  0
  3  4  1  0  0  0  0
  3  7  1  0  0  0  0
  3  8  1  0  0  0  0
  4 26  1  0  0  0  0
  6  9  1  0  0  0  0
  6 12  1  0  0  0  0
  8 10  1  0  0  0  0
  8 11  2  0  0  0  0
  9 13  1  0  0  0  0
  9 14  1  0  0  0  0
  9 15  1  0  0  0  0
 10 16  1  0  0  0  0
 10 17  1  0  0  0  0
 10 18  1  0  0  0  0
 19 20  1  0  0  0  0
 20 21  4  0  0  0  0
 20 25  4  0  0  0  0
 21 22  4  0  0  0  0
 21 27  1  0  0  0  0
 22 23  4  0  0  0  0
 22 28  1  0  0  0  0
 23 24  4  0  0  0  0
 23 26  1  0  0  0  0
 24 25  4  0  0  0  0
 24 29  1  0  0  0  0
 25 30  1  0  0  0  0
 26 31  1  0  0  0  0
 26 32  1  0  0  0  0
M  END
> <BCLConfClusterSize>
1

> <ConfClashScore>
0 

> <ConfOneFourInteractionScore>
-0.946346 

> <ConfScore>
0.292071 

> <ConfScorePBest>
0.00265034 

> <ConfTolerance>
0.590097 

> <RosettaParamsInstructions>
M  ROOT 3
M  POLY_N_BB 3
M  POLY_CA_BB 4
M  POLY_C_BB 2
M  POLY_O_BB 5
M  POLY_IGNORE 9 10 11 12 13 14 15 16 17 18 
M  POLY_UPPER 6
M  POLY_LOWER 8
M  POLY_CHG 0
M  POLY_PROPERTIES ALPHA_AA L_AA PROTEIN AROMATIC POLYMER 
M  END

$$$$



 32 32  0  0  0  0  0  0  0  0999 V2000
   -1.2312    2.1351   -0.6703 H   0  0  0  1  0  0  0  0  0  0  0  0
   -0.6947    0.4644    0.5132 C   0  0  0  1  0  0  0  0  0  0  0  0
   -2.9537    1.3051    0.1176 N   0  0  0  1  0  0  0  0  0  0  0  0
   -1.5568    1.6921    0.2477 C   0  0  0  1  0  0  0  0  0  0  0  0
   -0.3764    0.1440    1.6553 O   0  0  0  1  0  0  0  0  0  0  0  0
   -0.3177   -0.2248   -0.5675 N   0  0  0  1  0  0  0  0  0  0  0  0
   -3.5000    1.2264    0.9274 H   0  0  0  1  0  0  0  0  0  0  0  0
   -3.5178    1.0531   -1.0688 C   0  0  0  1  0  0  0  0  0  0  0  0
    0.5896   -1.3547   -0.4338 C   0  0  0  1  0  0  0  0  0  0  0  0
   -5.0096    0.6956   -1.0629 C   0  0  0  1  0  0  0  0  0  0  0  0
   -2.9202    1.1716   -2.1376 O   0  0  0  1  0  0  0  0  0  0  0  0
   -0.6528    0.0312   -1.4522 H   0  0  0  1  0  0  0  0  0  0  0  0
    1.0343   -1.3424    0.5394 H   0  0  0  1  0  0  0  0  0  0  0  0
    1.3564   -1.2860   -1.1769 H   0  0  0  1  0  0  0  0  0  0  0  0
    0.0453   -2.2664   -0.5654 H   0  0  0  1  0  0  0  0  0  0  0  0
   -5.2241    0.0720   -0.2203 H   0  0  0  1  0  0  0  0  0  0  0  0
   -5.2546    0.1737   -1.9643 H   0  0  0  1  0  0  0  0  0  0  0  0
   -5.5906    1.5919   -1.0000 H   0  0  0  1  0  0  0  0  0  0  0  0
   -4.4007    8.2454    0.3836 I   0  0  0  1  0  0  0  0  0  0  0  0
   -3.4178    6.4267    0.6912 C   0  0  0  1  0  0  0  0  0  0  0  0
   -2.5636    6.2739    1.7722 C   0  0  0  1  0  0  0  0  0  0  0  0
   -1.9097    5.0728    1.9721 C   0  0  0  1  0  0  0  0  0  0  0  0
   -2.1123    4.0191    1.0945 C   0  0  0  1  0  0  0  0  0  0  0  0
   -2.9639    4.1713    0.0166 C   0  0  0  1  0  0  0  0  0  0  0  0
   -3.6196    5.3760   -0.1838 C   0  0  0  1  0  0  0  0  0  0  0  0
   -1.3776    2.7270    1.3628 C   0  0  0  1  0  0  0  0  0  0  0  0
   -2.4148    7.0632    2.4329 H   0  0  0  1  0  0  0  0  0  0  0  0
   -1.2658    4.9596    2.7809 H   0  0  0  1  0  0  0  0  0  0  0  0
   -3.1127    3.3820   -0.6441 H   0  0  0  1  0  0  0  0  0  0  0  0
   -4.2635    5.4893   -0.9926 H   0  0  0  1  0  0  0  0  0  0  0  0
   -0.3343    2.9428    1.4627 H   0  0  0  1  0  0  0  0  0  0  0  0
   -1.7451    2.3097    2.2770 H   0  0  0  1  0  0  0  0  0  0  0  0
  1  4  1  0  0  0  0
  2  4  1  0  0  0  0
  2  5  2  0  0  0  0
  2  6  1  0  0  0  0
  3  4  1  0  0  0  0
  3  7  1  0  0  0  0
  3  8  1  0  0  0  0
  4 26  1  0  0  0  0
  6  9  1  0  0  0  0
  6 12  1  0  0  0  0
  8 10  1  0  0  0  0
  8 11  2  0  0  0  0
  9 13  1  0  0  0  0
  9 14  1  0  0  0  0
  9 15  1  0  0  0  0
 10 16  1  0  0  0  0
 10 17  1  0  0  0  0
 10 18  1  0  0  0  0
 19 20  1  0  0  0  0
 20 21  4  0  0  0  0
 20 25  4  0  0  0  0
 21 22  4  0  0  0  0
 21 27  1  0  0  0  0
 22 23  4  0  0  0  0
 22 28  1  0  0  0  0
 23 24  4  0  0  0  0
 23 26  1  0  0  0  0
 24 25  4  0  0  0  0
 24 29  1  0  0  0  0
 25 30  1  0  0  0  0
 26 31  1  0  0  0  0
 26 32  1  0  0  0  0
M  END
> <BCLConfClusterSize>
1

> <ConfClashScore>
0 

> <ConfOneFourInteractionScore>
-0.967818 

> <ConfScore>
0.293682 

> <ConfScorePBest>
0.00262186 

> <ConfTolerance>
0.984051 

> <RosettaParamsInstructions>
M  ROOT 3
M  POLY_N_BB 3
M  POLY_CA_BB 4
M  POLY_C_BB 2
M  POLY_O_BB 5
M  POLY_IGNORE 9 10 11 12 13 14 15 16 17 18 
M  POLY_UPPER 6
M  POLY_LOWER 8
M  POLY_CHG 0
M  POLY_PROPERTIES ALPHA_AA L_AA PROTEIN AROMATIC POLYMER 
M  END

$$$$



 32 32  0  0  0  0  0  0  0  0999 V2000
   -1.5988    0.7780    2.1759 H   0  0  0  1  0  0  0  0  0  0  0  0
   -2.2832    2.2095    3.5889 C   0  0  0  1  0  0  0  0  0  0  0  0
   -3.4681    1.4566    1.5788 N   0  0  0  1  0  0  0  0  0  0  0  0
   -2.1555    1.6916    2.1619 C   0  0  0  1  0  0  0  0  0  0  0  0
   -1.3854    2.8643    4.1120 O   0  0  0  1  0  0  0  0  0  0  0  0
   -3.4221    1.9045    4.2173 N   0  0  0  1  0  0  0  0  0  0  0  0
   -3.6282    0.6186    1.0967 H   0  0  0  1  0  0  0  0  0  0  0  0
   -4.4849    2.3637    1.6803 C   0  0  0  1  0  0  0  0  0  0  0  0
   -3.6799    2.2989    5.5943 C   0  0  0  1  0  0  0  0  0  0  0  0
   -5.7764    1.8985    1.0418 C   0  0  0  1  0  0  0  0  0  0  0  0
   -4.3398    3.4366    2.2364 O   0  0  0  1  0  0  0  0  0  0  0  0
   -4.1078    1.3977    3.7342 H   0  0  0  1  0  0  0  0  0  0  0  0
   -4.4097    1.6440    6.0226 H   0  0  0  1  0  0  0  0  0  0  0  0
   -4.0470    3.3037    5.6145 H   0  0  0  1  0  0  0  0  0  0  0  0
   -2.7724    2.2387    6.1580 H   0  0  0  1  0  0  0  0  0  0  0  0
   -6.0184    0.9189    1.3980 H   0  0  0  1  0  0  0  0  0  0  0  0
   -5.6591    1.8721   -0.0215 H   0  0  0  1  0  0  0  0  0  0  0  0
   -6.5646    2.5755    1.2975 H   0  0  0  1  0  0  0  0  0  0  0  0
   -4.3790    8.2629    0.4232 I   0  0  0  1  0  0  0  0  0  0  0  0
   -3.4231    6.4223    0.6814 C   0  0  0  1  0  0  0  0  0  0  0  0
   -2.5710    6.2797    1.7654 C   0  0  0  1  0  0  0  0  0  0  0  0
   -1.9124    5.0827    1.9742 C   0  0  0  1  0  0  0  0  0  0  0  0
   -2.1081    4.0229    1.1024 C   0  0  0  1  0  0  0  0  0  0  0  0
   -2.9577    4.1649    0.0214 C   0  0  0  1  0  0  0  0  0  0  0  0
   -3.6181    5.3656   -0.1878 C   0  0  0  1  0  0  0  0  0  0  0  0
   -1.3932    2.7125    1.3331 C   0  0  0  1  0  0  0  0  0  0  0  0
   -2.4273    7.0735    2.4218 H   0  0  0  1  0  0  0  0  0  0  0  0
   -1.2701    4.9771    2.7853 H   0  0  0  1  0  0  0  0  0  0  0  0
   -3.1013    3.3710   -0.6349 H   0  0  0  1  0  0  0  0  0  0  0  0
   -4.2605    5.4712   -0.9989 H   0  0  0  1  0  0  0  0  0  0  0  0
   -1.1883    2.2757    0.3781 H   0  0  0  1  0  0  0  0  0  0  0  0
   -0.4718    2.9231    1.8347 H   0  0  0  1  0  0  0  0  0  0  0  0
  1  4  1  0  0  0  0
  2  4  1  0  0  0  0
  2  5  2  0  0  0  0
  2  6  1  0  0  0  0
  3  4  1  0  0  0  0
  3  7  1  0  0  0  0
  3  8  1  0  0  0  0
  4 26  1  0  0  0  0
  6  9  1  0  0  0  0
  6 12  1  0  0  0  0
  8 10  1  0  0  0  0
  8 11  2  0  0  0  0
  9 13  1  0  0  0  0
  9 14  1  0  0  0  0
  9 15  1  0  0  0  0
 10 16  1  0  0  0  0
 10 17  1  0  0  0  0
 10 18  1  0  0  0  0
 19 20  1  0  0  0  0
 20 21  4  0  0  0  0
 20 25  4  0  0  0  0
 21 22  4  0  0  0  0
 21 27  1  0  0  0  0
 22 23  4  0  0  0  0
 22 28  1  0  0  0  0
 23 24  4  0  0  0  0
 23 26  1  0  0  0  0
 24 25  4  0  0  0  0
 24 29  1  0  0  0  0
 25 30  1  0  0  0  0
 26 31  1  0  0  0  0
 26 32  1  0  0  0  0
M  END
> <BCLConfClusterSize>
1

> <ConfClashScore>
0 

> <ConfOneFourInteractionScore>
-0.928983 

> <ConfScore>
0.297039 

> <ConfScorePBest>
0.00259338 

> <ConfTolerance>
0.614374 

> <RosettaParamsInstructions>
M  ROOT 3
M  POLY_N_BB 3
M  POLY_CA_BB 4
M  POLY_C_BB 2
M  POLY_O_BB 5
M  POLY_IGNORE 9 10 11 12 13 14 15 16 17 18 
M  POLY_UPPER 6
M  POLY_LOWER 8
M  POLY_CHG 0
M  POLY_PROPERTIES ALPHA_AA L_AA PROTEIN AROMATIC POLYMER 
M  END

$$$$



 32 32  0  0  0  0  0  0  0  0999 V2000
   -1.6938    0.6603    1.6381 H   0  0  0  1  0  0  0  0  0  0  0  0
   -3.1925    1.6507    2.7281 C   0  0  0  1  0  0  0  0  0  0  0  0
   -3.1791    1.2616    0.3494 N   0  0  0  1  0  0  0  0  0  0  0  0
   -2.3128    1.5210    1.4938 C   0  0  0  1  0  0  0  0  0  0  0  0
   -4.0408    2.5377    2.8130 O   0  0  0  1  0  0  0  0  0  0  0  0
   -3.0498    0.6986    3.6637 N   0  0  0  1  0  0  0  0  0  0  0  0
   -3.7863    1.9684    0.0460 H   0  0  0  1  0  0  0  0  0  0  0  0
   -3.1735    0.0938   -0.2997 C   0  0  0  1  0  0  0  0  0  0  0  0
   -3.9157    0.6195    4.8307 C   0  0  0  1  0  0  0  0  0  0  0  0
   -4.0185    0.0664   -1.5746 C   0  0  0  1  0  0  0  0  0  0  0  0
   -2.4931   -0.8796    0.0217 O   0  0  0  1  0  0  0  0  0  0  0  0
   -2.3377    0.0337    3.5572 H   0  0  0  1  0  0  0  0  0  0  0  0
   -4.4763   -0.2913    4.7984 H   0  0  0  1  0  0  0  0  0  0  0  0
   -4.5880    1.4519    4.8328 H   0  0  0  1  0  0  0  0  0  0  0  0
   -3.3194    0.6397    5.7190 H   0  0  0  1  0  0  0  0  0  0  0  0
   -3.9151   -0.8860   -2.0512 H   0  0  0  1  0  0  0  0  0  0  0  0
   -3.6856    0.8358   -2.2395 H   0  0  0  1  0  0  0  0  0  0  0  0
   -5.0460    0.2302   -1.3247 H   0  0  0  1  0  0  0  0  0  0  0  0
   -4.4007    8.2454    0.3836 I   0  0  0  1  0  0  0  0  0  0  0  0
   -3.4178    6.4267    0.6912 C   0  0  0  1  0  0  0  0  0  0  0  0
   -2.5636    6.2739    1.7722 C   0  0  0  1  0  0  0  0  0  0  0  0
   -1.9097    5.0728    1.9721 C   0  0  0  1  0  0  0  0  0  0  0  0
   -2.1123    4.0191    1.0945 C   0  0  0  1  0  0  0  0  0  0  0  0
   -2.9639    4.1713    0.0166 C   0  0  0  1  0  0  0  0  0  0  0  0
   -3.6196    5.3760   -0.1838 C   0  0  0  1  0  0  0  0  0  0  0  0
   -1.3776    2.7270    1.3628 C   0  0  0  1  0  0  0  0  0  0  0  0
   -2.4148    7.0632    2.4329 H   0  0  0  1  0  0  0  0  0  0  0  0
   -1.2658    4.9596    2.7809 H   0  0  0  1  0  0  0  0  0  0  0  0
   -3.1127    3.3820   -0.6441 H   0  0  0  1  0  0  0  0  0  0  0  0
   -4.2635    5.4893   -0.9926 H   0  0  0  1  0  0  0  0  0  0  0  0
   -0.7000    2.5463    0.5546 H   0  0  0  1  0  0  0  0  0  0  0  0
   -0.8267    2.8313    2.2741 H   0  0  0  1  0  0  0  0  0  0  0  0
  1  4  1  0  0  0  0
  2  4  1  0  0  0  0
  2  5  2  0  0  0  0
  2  6  1  0  0  0  0
  3  4  1  0  0  0  0
  3  7  1  0  0  0  0
  3  8  1  0  0  0  0
  4 26  1  0  0  0  0
  6  9  1  0  0  0  0
  6 12  1  0  0  0  0
  8 10  1  0  0  0  0
  8 11  2  0  0  0  0
  9 13  1  0  0  0  0
  9 14  1  0  0  0  0
  9 15  1  0  0  0  0
 10 16  1  0  0  0  0
 10 17  1  0  0  0  0
 10 18  1  0  0  0  0
 19 20  1  0  0  0  0
 20 21  4  0  0  0  0
 20 25  4  0  0  0  0
 21 22  4  0  0  0  0
 21 27  1  0  0  0  0
 22 23  4  0  0  0  0
 22 28  1  0  0  0  0
 23 24  4  0  0  0  0
 23 26  1  0  0  0  0
 24 25  4  0  0  0  0
 24 29  1  0  0  0  0
 25 30  1  0  0  0  0
 26 31  1  0  0  0  0
 26 32  1  0  0  0  0
M  END
> <BCLConfClusterSize>
1

> <ConfClashScore>
0 

> <ConfOneFourInteractionScore>
-0.980789 

> <ConfScore>
0.299276 

> <ConfScorePBest>
0.0025649 

> <ConfTolerance>
0.832253 

> <RosettaParamsInstructions>
M  ROOT 3
M  POLY_N_BB 3
M  POLY_CA_BB 4
M  POLY_C_BB 2
M  POLY_O_BB 5
M  POLY_IGNORE 9 10 11 12 13 14 15 16 17 18 
M  POLY_UPPER 6
M  POLY_LOWER 8
M  POLY_CHG 0
M  POLY_PROPERTIES ALPHA_AA L_AA PROTEIN AROMATIC POLYMER 
M  END

$$$$



 32 32  0  0  0  0  0  0  0  0999 V2000
    0.1975    3.3953    2.5292 H   0  0  0  1  0  0  0  0  0  0  0  0
    0.7868    1.5257    1.7552 C   0  0  0  1  0  0  0  0  0  0  0  0
    0.7053    3.6963    0.5573 N   0  0  0  1  0  0  0  0  0  0  0  0
    0.0994    2.8777    1.5979 C   0  0  0  1  0  0  0  0  0  0  0  0
    1.2933    0.9443    0.7965 O   0  0  0  1  0  0  0  0  0  0  0  0
    0.7768    1.0586    3.0137 N   0  0  0  1  0  0  0  0  0  0  0  0
    1.0252    4.5935    0.7877 H   0  0  0  1  0  0  0  0  0  0  0  0
    0.8399    3.2677   -0.6981 C   0  0  0  1  0  0  0  0  0  0  0  0
    1.3654   -0.2026    3.4390 C   0  0  0  1  0  0  0  0  0  0  0  0
    1.3228    4.2542   -1.7435 C   0  0  0  1  0  0  0  0  0  0  0  0
    0.5960    2.1197   -1.0600 O   0  0  0  1  0  0  0  0  0  0  0  0
    0.3403    1.6083    3.6976 H   0  0  0  1  0  0  0  0  0  0  0  0
    1.2503   -0.9301    2.6629 H   0  0  0  1  0  0  0  0  0  0  0  0
    0.8725   -0.5452    4.3247 H   0  0  0  1  0  0  0  0  0  0  0  0
    2.4062   -0.0596    3.6420 H   0  0  0  1  0  0  0  0  0  0  0  0
    0.6921    4.1979   -2.6060 H   0  0  0  1  0  0  0  0  0  0  0  0
    2.3283    4.0158   -2.0210 H   0  0  0  1  0  0  0  0  0  0  0  0
    1.2888    5.2451   -1.3411 H   0  0  0  1  0  0  0  0  0  0  0  0
   -4.4032    8.2433    0.3789 I   0  0  0  1  0  0  0  0  0  0  0  0
   -3.4175    6.4271    0.6918 C   0  0  0  1  0  0  0  0  0  0  0  0
   -2.5641    6.2783    1.7740 C   0  0  0  1  0  0  0  0  0  0  0  0
   -1.9084    5.0788    1.9774 C   0  0  0  1  0  0  0  0  0  0  0  0
   -2.1083    4.0227    1.1021 C   0  0  0  1  0  0  0  0  0  0  0  0
   -2.9591    4.1708    0.0229 C   0  0  0  1  0  0  0  0  0  0  0  0
   -3.6167    5.3740   -0.1809 C   0  0  0  1  0  0  0  0  0  0  0  0
   -1.3965    2.7096    1.3270 C   0  0  0  1  0  0  0  0  0  0  0  0
   -2.4173    7.0693    2.4330 H   0  0  0  1  0  0  0  0  0  0  0  0
   -1.2651    4.9685    2.7871 H   0  0  0  1  0  0  0  0  0  0  0  0
   -3.1058    3.3797   -0.6360 H   0  0  0  1  0  0  0  0  0  0  0  0
   -4.2600    5.4843   -0.9906 H   0  0  0  1  0  0  0  0  0  0  0  0
   -1.8420    2.2204    2.1679 H   0  0  0  1  0  0  0  0  0  0  0  0
   -1.5185    2.1023    0.4545 H   0  0  0  1  0  0  0  0  0  0  0  0
  1  4  1  0  0  0  0
  2  4  1  0  0  0  0
  2  5  2  0  0  0  0
  2  6  1  0  0  0  0
  3  4  1  0  0  0  0
  3  7  1  0  0  0  0
  3  8  1  0  0  0  0
  4 26  1  0  0  0  0
  6  9  1  0  0  0  0
  6 12  1  0  0  0  0
  8 10  1  0  0  0  0
  8 11  2  0  0  0  0
  9 13  1  0  0  0  0
  9 14  1  0  0  0  0
  9 15  1  0  0  0  0
 10 16  1  0  0  0  0
 10 17  1  0  0  0  0
 10 18  1  0  0  0  0
 19 20  1  0  0  0  0
 20 21  4  0  0  0  0
 20 25  4  0  0  0  0
 21 22  4  0  0  0  0
 21 27  1  0  0  0  0
 22 23  4  0  0  0  0
 22 28  1  0  0  0  0
 23 24  4  0  0  0  0
 23 26  1  0  0  0  0
 24 25  4  0  0  0  0
 24 29  1  0  0  0  0
 25 30  1  0  0  0  0
 26 31  1  0  0  0  0
 26 32  1  0  0  0  0
M  END
> <BCLConfClusterSize>
1

> <ConfClashScore>
0 

> <ConfOneFourInteractionScore>
-0.984592 

> <ConfScore>
0.307387 

> <ConfScorePBest>
0.00253641 

> <ConfTolerance>
0.680744 

> <RosettaParamsInstructions>
M  ROOT 3
M  POLY_N_BB 3
M  POLY_CA_BB 4
M  POLY_C_BB 2
M  POLY_O_BB 5
M  POLY_IGNORE 9 10 11 12 13 14 15 16 17 18 
M  POLY_UPPER 6
M  POLY_LOWER 8
M  POLY_CHG 0
M  POLY_PROPERTIES ALPHA_AA L_AA PROTEIN AROMATIC POLYMER 
M  END

$$$$



 32 32  0  0  0  0  0  0  0  0999 V2000
   -3.0175    1.4167    1.4110 H   0  0  0  1  0  0  0  0  0  0  0  0
   -1.3954    0.3586    2.2236 C   0  0  0  1  0  0  0  0  0  0  0  0
   -2.7417    2.0978    3.3252 N   0  0  0  1  0  0  0  0  0  0  0  0
   -2.1942    1.6462    2.0547 C   0  0  0  1  0  0  0  0  0  0  0  0
   -0.9681    0.0212    3.3268 O   0  0  0  1  0  0  0  0  0  0  0  0
   -1.1745   -0.3902    1.1394 N   0  0  0  1  0  0  0  0  0  0  0  0
   -2.1070    2.3436    4.0303 H   0  0  0  1  0  0  0  0  0  0  0  0
   -4.0423    2.2023    3.6023 C   0  0  0  1  0  0  0  0  0  0  0  0
   -0.2380   -1.5042    1.1417 C   0  0  0  1  0  0  0  0  0  0  0  0
   -4.9871    1.8699    2.4639 C   0  0  0  1  0  0  0  0  0  0  0  0
   -4.4668    2.5449    4.7047 O   0  0  0  1  0  0  0  0  0  0  0  0
   -1.6599   -0.1821    0.3139 H   0  0  0  1  0  0  0  0  0  0  0  0
    0.1994   -1.6051    0.1703 H   0  0  0  1  0  0  0  0  0  0  0  0
   -0.7566   -2.4053    1.3944 H   0  0  0  1  0  0  0  0  0  0  0  0
    0.5319   -1.3211    1.8619 H   0  0  0  1  0  0  0  0  0  0  0  0
   -4.7967    2.5242    1.6390 H   0  0  0  1  0  0  0  0  0  0  0  0
   -5.9980    1.9945    2.7917 H   0  0  0  1  0  0  0  0  0  0  0  0
   -4.8334    0.8562    2.1576 H   0  0  0  1  0  0  0  0  0  0  0  0
   -4.4258    8.2225    0.3363 I   0  0  0  1  0  0  0  0  0  0  0  0
   -3.4118    6.4320    0.7024 C   0  0  0  1  0  0  0  0  0  0  0  0
   -2.5563    6.2725    1.7814 C   0  0  0  1  0  0  0  0  0  0  0  0
   -1.9056    5.0688    1.9755 C   0  0  0  1  0  0  0  0  0  0  0  0
   -2.1125    4.0191    1.0942 C   0  0  0  1  0  0  0  0  0  0  0  0
   -2.9655    4.1779    0.0182 C   0  0  0  1  0  0  0  0  0  0  0  0
   -3.6181    5.3853   -0.1764 C   0  0  0  1  0  0  0  0  0  0  0  0
   -1.3811    2.7238    1.3562 C   0  0  0  1  0  0  0  0  0  0  0  0
   -2.4041    7.0588    2.4449 H   0  0  0  1  0  0  0  0  0  0  0  0
   -1.2606    4.9505    2.7828 H   0  0  0  1  0  0  0  0  0  0  0  0
   -3.1176    3.3916   -0.6453 H   0  0  0  1  0  0  0  0  0  0  0  0
   -4.2630    5.5036   -0.9836 H   0  0  0  1  0  0  0  0  0  0  0  0
   -1.0545    2.3330    0.4152 H   0  0  0  1  0  0  0  0  0  0  0  0
   -0.5301    2.9430    1.9666 H   0  0  0  1  0  0  0  0  0  0  0  0
  1  4  1  0  0  0  0
  2  4  1  0  0  0  0
  2  5  2  0  0  0  0
  2  6  1  0  0  0  0
  3  4  1  0  0  0  0
  3  7  1  0  0  0  0
  3  8  1  0  0  0  0
  4 26  1  0  0  0  0
  6  9  1  0  0  0  0
  6 12  1  0  0  0  0
  8 10  1  0  0  0  0
  8 11  2  0  0  0  0
  9 13  1  0  0  0  0
  9 14  1  0  0  0  0
  9 15  1  0  0  0  0
 10 16  1  0  0  0  0
 10 17  1  0  0  0  0
 10 18  1  0  0  0  0
 19 20  1  0  0  0  0
 20 21  4  0  0  0  0
 20 25  4  0  0  0  0
 21 22  4  0  0  0  0
 21 27  1  0  0  0  0
 22 23  4  0  0  0  0
 22 28  1  0  0  0  0
 23 24  4  0  0  0  0
 23 26  1  0  0  0  0
 24 25  4  0  0  0  0
 24 29  1  0  0  0  0
 25 30  1  0  0  0  0
 26 31  1  0  0  0  0
 26 32  1  0  0  0  0
M  END
> <BCLConfClusterSize>
1

> <ConfClashScore>
0 

> <ConfOneFourInteractionScore>
-0.990503 

> <ConfScore>
0.326264 

> <ConfScorePBest>
0.00250793 

> <ConfTolerance>
1.10358 

> <RosettaParamsInstructions>
M  ROOT 3
M  POLY_N_BB 3
M  POLY_CA_BB 4
M  POLY_C_BB 2
M  POLY_O_BB 5
M  POLY_IGNORE 9 10 11 12 13 14 15 16 17 18 
M  POLY_UPPER 6
M  POLY_LOWER 8
M  POLY_CHG 0
M  POLY_PROPERTIES ALPHA_AA L_AA PROTEIN AROMATIC POLYMER 
M  END

$$$$



 32 32  0  0  0  0  0  0  0  0999 V2000
   -0.5554    2.4788   -0.6254 H   0  0  0  1  0  0  0  0  0  0  0  0
    0.7850    3.5843    0.5781 C   0  0  0  1  0  0  0  0  0  0  0  0
    0.3418    1.1335    0.6638 N   0  0  0  1  0  0  0  0  0  0  0  0
   -0.2160    2.4529    0.3890 C   0  0  0  1  0  0  0  0  0  0  0  0
    0.4423    4.7153    0.8710 O   0  0  0  1  0  0  0  0  0  0  0  0
    2.0873    3.3325    0.4180 N   0  0  0  1  0  0  0  0  0  0  0  0
    0.3648    0.4702   -0.0572 H   0  0  0  1  0  0  0  0  0  0  0  0
    0.8224    0.7978    1.8643 C   0  0  0  1  0  0  0  0  0  0  0  0
    3.1094    4.3392    0.6623 C   0  0  0  1  0  0  0  0  0  0  0  0
    1.1814   -0.6773    2.0283 C   0  0  0  1  0  0  0  0  0  0  0  0
    0.9095    1.5796    2.8092 O   0  0  0  1  0  0  0  0  0  0  0  0
    2.3638    2.4389    0.1260 H   0  0  0  1  0  0  0  0  0  0  0  0
    3.2229    4.4846    1.7163 H   0  0  0  1  0  0  0  0  0  0  0  0
    2.8179    5.2615    0.2046 H   0  0  0  1  0  0  0  0  0  0  0  0
    4.0389    4.0118    0.2455 H   0  0  0  1  0  0  0  0  0  0  0  0
    0.2864   -1.2637    2.0390 H   0  0  0  1  0  0  0  0  0  0  0  0
    1.7091   -0.8155    2.9489 H   0  0  0  1  0  0  0  0  0  0  0  0
    1.8003   -0.9864    1.2120 H   0  0  0  1  0  0  0  0  0  0  0  0
   -4.4059    8.2409    0.3740 I   0  0  0  1  0  0  0  0  0  0  0  0
   -3.4171    6.4273    0.6924 C   0  0  0  1  0  0  0  0  0  0  0  0
   -2.5646    6.2828    1.7759 C   0  0  0  1  0  0  0  0  0  0  0  0
   -1.9069    5.0850    1.9830 C   0  0  0  1  0  0  0  0  0  0  0  0
   -2.1039    4.0264    1.1101 C   0  0  0  1  0  0  0  0  0  0  0  0
   -2.9538    4.1702    0.0297 C   0  0  0  1  0  0  0  0  0  0  0  0
   -3.6134    5.3716   -0.1778 C   0  0  0  1  0  0  0  0  0  0  0  0
   -1.4177    2.6926    1.2883 C   0  0  0  1  0  0  0  0  0  0  0  0
   -2.4200    7.0758    2.4331 H   0  0  0  1  0  0  0  0  0  0  0  0
   -1.2643    4.9780    2.7937 H   0  0  0  1  0  0  0  0  0  0  0  0
   -3.0984    3.3772   -0.6274 H   0  0  0  1  0  0  0  0  0  0  0  0
   -4.2560    5.4787   -0.9885 H   0  0  0  1  0  0  0  0  0  0  0  0
   -1.0887    2.6238    2.3041 H   0  0  0  1  0  0  0  0  0  0  0  0
   -2.1353    1.9235    1.0924 H   0  0  0  1  0  0  0  0  0  0  0  0
  1  4  1  0  0  0  0
  2  4  1  0  0  0  0
  2  5  2  0  0  0  0
  2  6  1  0  0  0  0
  3  4  1  0  0  0  0
  3  7  1  0  0  0  0
  3  8  1  0  0  0  0
  4 26  1  0  0  0  0
  6  9  1  0  0  0  0
  6 12  1  0  0  0  0
  8 10  1  0  0  0  0
  8 11  2  0  0  0  0
  9 13  1  0  0  0  0
  9 14  1  0  0  0  0
  9 15  1  0  0  0  0
 10 16  1  0  0  0  0
 10 17  1  0  0  0  0
 10 18  1  0  0  0  0
 19 20  1  0  0  0  0
 20 21  4  0  0  0  0
 20 25  4  0  0  0  0
 21 22  4  0  0  0  0
 21 27  1  0  0  0  0
 22 23  4  0  0  0  0
 22 28  1  0  0  0  0
 23 24  4  0  0  0  0
 23 26  1  0  0  0  0
 24 25  4  0  0  0  0
 24 29  1  0  0  0  0
 25 30  1  0  0  0  0
 26 31  1  0  0  0  0
 26 32  1  0  0  0  0
M  END
> <BCLConfClusterSize>
1

> <ConfClashScore>
0 

> <ConfOneFourInteractionScore>
-0.956972 

> <ConfScore>
0.337909 

> <ConfScorePBest>
0.00247945 

> <ConfTolerance>
0.373439 

> <RosettaParamsInstructions>
M  ROOT 3
M  POLY_N_BB 3
M  POLY_CA_BB 4
M  POLY_C_BB 2
M  POLY_O_BB 5
M  POLY_IGNORE 9 10 11 12 13 14 15 16 17 18 
M  POLY_UPPER 6
M  POLY_LOWER 8
M  POLY_CHG 0
M  POLY_PROPERTIES ALPHA_AA L_AA PROTEIN AROMATIC POLYMER 
M  END

$$$$



 32 32  0  0  0  0  0  0  0  0999 V2000
   -0.2382    2.9610   -0.4556 H   0  0  0  1  0  0  0  0  0  0  0  0
    0.9252    3.7179    1.2093 C   0  0  0  1  0  0  0  0  0  0  0  0
    0.5167    1.3388    0.5859 N   0  0  0  1  0  0  0  0  0  0  0  0
   -0.0698    2.6740    0.5613 C   0  0  0  1  0  0  0  0  0  0  0  0
    1.0701    4.8667    0.6158 O   0  0  0  1  0  0  0  0  0  0  0  0
    1.5560    3.3232    2.3489 N   0  0  0  1  0  0  0  0  0  0  0  0
    0.0159    0.5918    0.9754 H   0  0  0  1  0  0  0  0  0  0  0  0
    1.7472    1.1298    0.0736 C   0  0  0  1  0  0  0  0  0  0  0  0
    1.1716    2.1776    3.1599 C   0  0  0  1  0  0  0  0  0  0  0  0
    2.2912   -0.2730    0.2226 C   0  0  0  1  0  0  0  0  0  0  0  0
    2.3998    2.0120   -0.4827 O   0  0  0  1  0  0  0  0  0  0  0  0
    2.3271    3.8502    2.6458 H   0  0  0  1  0  0  0  0  0  0  0  0
    1.7060    2.2007    4.0867 H   0  0  0  1  0  0  0  0  0  0  0  0
    1.4064    1.2749    2.6355 H   0  0  0  1  0  0  0  0  0  0  0  0
    0.1200    2.2149    3.3538 H   0  0  0  1  0  0  0  0  0  0  0  0
    1.7047   -0.9478   -0.3652 H   0  0  0  1  0  0  0  0  0  0  0  0
    2.2469   -0.5651    1.2510 H   0  0  0  1  0  0  0  0  0  0  0  0
    3.3070   -0.2988   -0.1126 H   0  0  0  1  0  0  0  0  0  0  0  0
   -4.4059    8.2409    0.3740 I   0  0  0  1  0  0  0  0  0  0  0  0
   -3.4171    6.4273    0.6924 C   0  0  0  1  0  0  0  0  0  0  0  0
   -2.5646    6.2828    1.7759 C   0  0  0  1  0  0  0  0  0  0  0  0
   -1.9069    5.0850    1.9830 C   0  0  0  1  0  0  0  0  0  0  0  0
   -2.1039    4.0264    1.1101 C   0  0  0  1  0  0  0  0  0  0  0  0
   -2.9538    4.1702    0.0297 C   0  0  0  1  0  0  0  0  0  0  0  0
   -3.6134    5.3716   -0.1778 C   0  0  0  1  0  0  0  0  0  0  0  0
   -1.4177    2.6926    1.2883 C   0  0  0  1  0  0  0  0  0  0  0  0
   -2.4200    7.0758    2.4331 H   0  0  0  1  0  0  0  0  0  0  0  0
   -1.2643    4.9780    2.7937 H   0  0  0  1  0  0  0  0  0  0  0  0
   -3.0984    3.3772   -0.6274 H   0  0  0  1  0  0  0  0  0  0  0  0
   -4.2560    5.4787   -0.9885 H   0  0  0  1  0  0  0  0  0  0  0  0
   -1.2561    2.5178    2.3315 H   0  0  0  1  0  0  0  0  0  0  0  0
   -2.0422    1.9207    0.8894 H   0  0  0  1  0  0  0  0  0  0  0  0
  1  4  1  0  0  0  0
  2  4  1  0  0  0  0
  2  5  2  0  0  0  0
  2  6  1  0  0  0  0
  3  4  1  0  0  0  0
  3  7  1  0  0  0  0
  3  8  1  0  0  0  0
  4 26  1  0  0  0  0
  6  9  1  0  0  0  0
  6 12  1  0  0  0  0
  8 10  1  0  0  0  0
  8 11  2  0  0  0  0
  9 13  1  0  0  0  0
  9 14  1  0  0  0  0
  9 15  1  0  0  0  0
 10 16  1  0  0  0  0
 10 17  1  0  0  0  0
 10 18  1  0  0  0  0
 19 20  1  0  0  0  0
 20 21  4  0  0  0  0
 20 25  4  0  0  0  0
 21 22  4  0  0  0  0
 21 27  1  0  0  0  0
 22 23  4  0  0  0  0
 22 28  1  0  0  0  0
 23 24  4  0  0  0  0
 23 26  1  0  0  0  0
 24 25  4  0  0  0  0
 24 29  1  0  0  0  0
 25 30  1  0  0  0  0
 26 31  1  0  0  0  0
 26 32  1  0  0  0  0
M  END
> <BCLConfClusterSize>
1

> <ConfClashScore>
0 

> <ConfOneFourInteractionScore>
-0.960318 

> <ConfScore>
0.35176 

> <ConfScorePBest>
0.00245097 

> <ConfTolerance>
0.968377 

> <RosettaParamsInstructions>
M  ROOT 3
M  POLY_N_BB 3
M  POLY_CA_BB 4
M  POLY_C_BB 2
M  POLY_O_BB 5
M  POLY_IGNORE 9 10 11 12 13 14 15 16 17 18 
M  POLY_UPPER 6
M  POLY_LOWER 8
M  POLY_CHG 0
M  POLY_PROPERTIES ALPHA_AA L_AA PROTEIN AROMATIC POLYMER 
M  END

$$$$



 32 32  0  0  0  0  0  0  0  0999 V2000
   -0.1450    2.2299   -0.2505 H   0  0  0  1  0  0  0  0  0  0  0  0
    0.5664    4.0672    0.5062 C   0  0  0  1  0  0  0  0  0  0  0  0
    0.9291    1.8626    1.4760 N   0  0  0  1  0  0  0  0  0  0  0  0
   -0.0021    2.6765    0.7113 C   0  0  0  1  0  0  0  0  0  0  0  0
    1.4562    4.5068    1.2331 O   0  0  0  1  0  0  0  0  0  0  0  0
    0.0371    4.7699   -0.5078 N   0  0  0  1  0  0  0  0  0  0  0  0
    1.3473    2.2466    2.2747 H   0  0  0  1  0  0  0  0  0  0  0  0
    1.2344    0.6094    1.1275 C   0  0  0  1  0  0  0  0  0  0  0  0
    0.4776    6.1338   -0.7600 C   0  0  0  1  0  0  0  0  0  0  0  0
    2.1814   -0.1213    2.0593 C   0  0  0  1  0  0  0  0  0  0  0  0
    0.7864    0.0673    0.1206 O   0  0  0  1  0  0  0  0  0  0  0  0
   -0.6474    4.3636   -1.0795 H   0  0  0  1  0  0  0  0  0  0  0  0
   -0.2180    6.8201   -0.3242 H   0  0  0  1  0  0  0  0  0  0  0  0
    0.5305    6.3019   -1.8154 H   0  0  0  1  0  0  0  0  0  0  0  0
    1.4442    6.2822   -0.3258 H   0  0  0  1  0  0  0  0  0  0  0  0
    2.2092    0.3791    3.0047 H   0  0  0  1  0  0  0  0  0  0  0  0
    3.1627   -0.1327    1.6330 H   0  0  0  1  0  0  0  0  0  0  0  0
    1.8405   -1.1261    2.1978 H   0  0  0  1  0  0  0  0  0  0  0  0
   -4.3737    8.2665    0.4326 I   0  0  0  1  0  0  0  0  0  0  0  0
   -3.4236    6.4215    0.6803 C   0  0  0  1  0  0  0  0  0  0  0  0
   -2.5699    6.2709    1.7619 C   0  0  0  1  0  0  0  0  0  0  0  0
   -1.9150    5.0707    1.9638 C   0  0  0  1  0  0  0  0  0  0  0  0
   -2.1160    4.0157    1.0875 C   0  0  0  1  0  0  0  0  0  0  0  0
   -2.9672    4.1656    0.0089 C   0  0  0  1  0  0  0  0  0  0  0  0
   -3.6240    5.3695   -0.1935 C   0  0  0  1  0  0  0  0  0  0  0  0
   -1.3567    2.7489    1.4039 C   0  0  0  1  0  0  0  0  0  0  0  0
   -2.4222    7.0612    2.4217 H   0  0  0  1  0  0  0  0  0  0  0  0
   -1.2714    4.9591    2.7731 H   0  0  0  1  0  0  0  0  0  0  0  0
   -3.1149    3.3753   -0.6509 H   0  0  0  1  0  0  0  0  0  0  0  0
   -4.2675    5.4811   -1.0028 H   0  0  0  1  0  0  0  0  0  0  0  0
   -1.2015    2.7000    2.4614 H   0  0  0  1  0  0  0  0  0  0  0  0
   -1.9448    1.9119    1.0901 H   0  0  0  1  0  0  0  0  0  0  0  0
  1  4  1  0  0  0  0
  2  4  1  0  0  0  0
  2  5  2  0  0  0  0
  2  6  1  0  0  0  0
  3  4  1  0  0  0  0
  3  7  1  0  0  0  0
  3  8  1  0  0  0  0
  4 26  1  0  0  0  0
  6  9  1  0  0  0  0
  6 12  1  0  0  0  0
  8 10  1  0  0  0  0
  8 11  2  0  0  0  0
  9 13  1  0  0  0  0
  9 14  1  0  0  0  0
  9 15  1  0  0  0  0
 10 16  1  0  0  0  0
 10 17  1  0  0  0  0
 10 18  1  0  0  0  0
 19 20  1  0  0  0  0
 20 21  4  0  0  0  0
 20 25  4  0  0  0  0
 21 22  4  0  0  0  0
 21 27  1  0  0  0  0
 22 23  4  0  0  0  0
 22 28  1  0  0  0  0
 23 24  4  0  0  0  0
 23 26  1  0  0  0  0
 24 25  4  0  0  0  0
 24 29  1  0  0  0  0
 25 30  1  0  0  0  0
 26 31  1  0  0  0  0
 26 32  1  0  0  0  0
M  END
> <BCLConfClusterSize>
1

> <ConfClashScore>
0 

> <ConfOneFourInteractionScore>
-0.979578 

> <ConfScore>
0.365652 

> <ConfScorePBest>
0.00242249 

> <ConfTolerance>
0.95547 

> <RosettaParamsInstructions>
M  ROOT 3
M  POLY_N_BB 3
M  POLY_CA_BB 4
M  POLY_C_BB 2
M  POLY_O_BB 5
M  POLY_IGNORE 9 10 11 12 13 14 15 16 17 18 
M  POLY_UPPER 6
M  POLY_LOWER 8
M  POLY_CHG 0
M  POLY_PROPERTIES ALPHA_AA L_AA PROTEIN AROMATIC POLYMER 
M  END

$$$$



 32 32  0  0  0  0  0  0  0  0999 V2000
   -2.3671    2.3373    3.1879 H   0  0  0  1  0  0  0  0  0  0  0  0
   -3.4541    1.2832    1.7468 C   0  0  0  1  0  0  0  0  0  0  0  0
   -1.2867    0.6603    2.7680 N   0  0  0  1  0  0  0  0  0  0  0  0
   -2.1223    1.7638    2.3184 C   0  0  0  1  0  0  0  0  0  0  0  0
   -3.5097    0.6870    0.6720 O   0  0  0  1  0  0  0  0  0  0  0  0
   -4.5392    1.5542    2.4893 N   0  0  0  1  0  0  0  0  0  0  0  0
   -0.8373    0.7306    3.6361 H   0  0  0  1  0  0  0  0  0  0  0  0
   -1.1102   -0.4498    2.0354 C   0  0  0  1  0  0  0  0  0  0  0  0
   -5.8735    1.1200    2.1034 C   0  0  0  1  0  0  0  0  0  0  0  0
   -0.2101   -1.5061    2.6464 C   0  0  0  1  0  0  0  0  0  0  0  0
   -1.6323   -0.6163    0.9454 O   0  0  0  1  0  0  0  0  0  0  0  0
   -4.4289    2.0620    3.3202 H   0  0  0  1  0  0  0  0  0  0  0  0
   -6.5948    1.8289    2.4527 H   0  0  0  1  0  0  0  0  0  0  0  0
   -6.0760    0.1627    2.5364 H   0  0  0  1  0  0  0  0  0  0  0  0
   -5.9308    1.0491    1.0372 H   0  0  0  1  0  0  0  0  0  0  0  0
    0.7420   -1.0750    2.8754 H   0  0  0  1  0  0  0  0  0  0  0  0
   -0.0799   -2.3089    1.9511 H   0  0  0  1  0  0  0  0  0  0  0  0
   -0.6574   -1.8797    3.5437 H   0  0  0  1  0  0  0  0  0  0  0  0
   -4.4462    8.2276    0.4415 I   0  0  0  1  0  0  0  0  0  0  0  0
   -3.3970    6.4346    0.6705 C   0  0  0  1  0  0  0  0  0  0  0  0
   -2.5508    6.2810    1.7576 C   0  0  0  1  0  0  0  0  0  0  0  0
   -1.9109    5.0747    1.9705 C   0  0  0  1  0  0  0  0  0  0  0  0
   -2.1194    4.0165    1.0998 C   0  0  0  1  0  0  0  0  0  0  0  0
   -2.9631    4.1693    0.0157 C   0  0  0  1  0  0  0  0  0  0  0  0
   -3.6049    5.3794   -0.1977 C   0  0  0  1  0  0  0  0  0  0  0  0
   -1.4000    2.7188    1.3822 C   0  0  0  1  0  0  0  0  0  0  0  0
   -2.3975    7.0737    2.4132 H   0  0  0  1  0  0  0  0  0  0  0  0
   -1.2729    4.9609    2.7839 H   0  0  0  1  0  0  0  0  0  0  0  0
   -3.1164    3.3766   -0.6398 H   0  0  0  1  0  0  0  0  0  0  0  0
   -4.2429    5.4932   -1.0111 H   0  0  0  1  0  0  0  0  0  0  0  0
   -1.2485    2.2157    0.4500 H   0  0  0  1  0  0  0  0  0  0  0  0
   -0.4521    2.9551    1.8187 H   0  0  0  1  0  0  0  0  0  0  0  0
  1  4  1  0  0  0  0
  2  4  1  0  0  0  0
  2  5  2  0  0  0  0
  2  6  1  0  0  0  0
  3  4  1  0  0  0  0
  3  7  1  0  0  0  0
  3  8  1  0  0  0  0
  4 26  1  0  0  0  0
  6  9  1  0  0  0  0
  6 12  1  0  0  0  0
  8 10  1  0  0  0  0
  8 11  2  0  0  0  0
  9 13  1  0  0  0  0
  9 14  1  0  0  0  0
  9 15  1  0  0  0  0
 10 16  1  0  0  0  0
 10 17  1  0  0  0  0
 10 18  1  0  0  0  0
 19 20  1  0  0  0  0
 20 21  4  0  0  0  0
 20 25  4  0  0  0  0
 21 22  4  0  0  0  0
 21 27  1  0  0  0  0
 22 23  4  0  0  0  0
 22 28  1  0  0  0  0
 23 24  4  0  0  0  0
 23 26  1  0  0  0  0
 24 25  4  0  0  0  0
 24 29  1  0  0  0  0
 25 30  1  0  0  0  0
 26 31  1  0  0  0  0
 26 32  1  0  0  0  0
M  END
> <BCLConfClusterSize>
1

> <ConfClashScore>
0 

> <ConfOneFourInteractionScore>
-0.976539 

> <ConfScore>
0.365967 

> <ConfScorePBest>
0.00239401 

> <ConfTolerance>
0.795214 

> <RosettaParamsInstructions>
M  ROOT 3
M  POLY_N_BB 3
M  POLY_CA_BB 4
M  POLY_C_BB 2
M  POLY_O_BB 5
M  POLY_IGNORE 9 10 11 12 13 14 15 16 17 18 
M  POLY_UPPER 6
M  POLY_LOWER 8
M  POLY_CHG 0
M  POLY_PROPERTIES ALPHA_AA L_AA PROTEIN AROMATIC POLYMER 
M  END

$$$$



 32 32  0  0  0  0  0  0  0  0999 V2000
   -1.4410    0.8566    2.2163 H   0  0  0  1  0  0  0  0  0  0  0  0
   -2.5296    2.1112    3.4975 C   0  0  0  1  0  0  0  0  0  0  0  0
   -3.2690    1.1779    1.3216 N   0  0  0  1  0  0  0  0  0  0  0  0
   -2.1108    1.6814    2.0902 C   0  0  0  1  0  0  0  0  0  0  0  0
   -3.6816    2.4629    3.7484 O   0  0  0  1  0  0  0  0  0  0  0  0
   -1.5329    2.0627    4.3955 N   0  0  0  1  0  0  0  0  0  0  0  0
   -3.1907    0.3187    0.8568 H   0  0  0  1  0  0  0  0  0  0  0  0
   -4.4168    1.8524    1.2388 C   0  0  0  1  0  0  0  0  0  0  0  0
   -1.7267    2.4224    5.7922 C   0  0  0  1  0  0  0  0  0  0  0  0
   -5.5570    1.1301    0.5478 C   0  0  0  1  0  0  0  0  0  0  0  0
   -4.5598    2.9866    1.6877 O   0  0  0  1  0  0  0  0  0  0  0  0
   -0.6438    1.7750    4.1002 H   0  0  0  1  0  0  0  0  0  0  0  0
   -2.4430    1.7622    6.2350 H   0  0  0  1  0  0  0  0  0  0  0  0
   -2.0836    3.4292    5.8548 H   0  0  0  1  0  0  0  0  0  0  0  0
   -0.7961    2.3402    6.3139 H   0  0  0  1  0  0  0  0  0  0  0  0
   -5.2663    0.1218    0.3385 H   0  0  0  1  0  0  0  0  0  0  0  0
   -5.7929    1.6305   -0.3680 H   0  0  0  1  0  0  0  0  0  0  0  0
   -6.4162    1.1282    1.1855 H   0  0  0  1  0  0  0  0  0  0  0  0
   -4.3863    8.2498    0.3656 I   0  0  0  1  0  0  0  0  0  0  0  0
   -3.4144    6.4282    0.6898 C   0  0  0  1  0  0  0  0  0  0  0  0
   -2.5661    6.2780    1.7758 C   0  0  0  1  0  0  0  0  0  0  0  0
   -1.9195    5.0749    1.9867 C   0  0  0  1  0  0  0  0  0  0  0  0
   -2.1235    4.0165    1.1151 C   0  0  0  1  0  0  0  0  0  0  0  0
   -2.9693    4.1659    0.0322 C   0  0  0  1  0  0  0  0  0  0  0  0
   -3.6177    5.3728   -0.1792 C   0  0  0  1  0  0  0  0  0  0  0  0
   -1.3527    2.7287    1.2851 C   0  0  0  1  0  0  0  0  0  0  0  0
   -2.4162    7.0709    2.4319 H   0  0  0  1  0  0  0  0  0  0  0  0
   -1.2800    4.9636    2.7992 H   0  0  0  1  0  0  0  0  0  0  0  0
   -3.1191    3.3731   -0.6239 H   0  0  0  1  0  0  0  0  0  0  0  0
   -4.2572    5.4840   -0.9917 H   0  0  0  1  0  0  0  0  0  0  0  0
   -1.1429    2.3269    0.3158 H   0  0  0  1  0  0  0  0  0  0  0  0
   -0.4337    2.9457    1.7884 H   0  0  0  1  0  0  0  0  0  0  0  0
  1  4  1  0  0  0  0
  2  4  1  0  0  0  0
  2  5  2  0  0  0  0
  2  6  1  0  0  0  0
  3  4  1  0  0  0  0
  3  7  1  0  0  0  0
  3  8  1  0  0  0  0
  4 26  1  0  0  0  0
  6  9  1  0  0  0  0
  6 12  1  0  0  0  0
  8 10  1  0  0  0  0
  8 11  2  0  0  0  0
  9 13  1  0  0  0  0
  9 14  1  0  0  0  0
  9 15  1  0  0  0  0
 10 16  1  0  0  0  0
 10 17  1  0  0  0  0
 10 18  1  0  0  0  0
 19 20  1  0  0  0  0
 20 21  4  0  0  0  0
 20 25  4  0  0  0  0
 21 22  4  0  0  0  0
 21 27  1  0  0  0  0
 22 23  4  0  0  0  0
 22 28  1  0  0  0  0
 23 24  4  0  0  0  0
 23 26  1  0  0  0  0
 24 25  4  0  0  0  0
 24 29  1  0  0  0  0
 25 30  1  0  0  0  0
 26 31  1  0  0  0  0
 26 32  1  0  0  0  0
M  END
> <BCLConfClusterSize>
1

> <ConfClashScore>
0 

> <ConfOneFourInteractionScore>
-0.977545 

> <ConfScore>
0.367333 

> <ConfScorePBest>
0.00236553 

> <ConfTolerance>
0.981711 

> <RosettaParamsInstructions>
M  ROOT 3
M  POLY_N_BB 3
M  POLY_CA_BB 4
M  POLY_C_BB 2
M  POLY_O_BB 5
M  POLY_IGNORE 9 10 11 12 13 14 15 16 17 18 
M  POLY_UPPER 6
M  POLY_LOWER 8
M  POLY_CHG 0
M  POLY_PROPERTIES ALPHA_AA L_AA PROTEIN AROMATIC POLYMER 
M  END

$$$$



 32 32  0  0  0  0  0  0  0  0999 V2000
    0.0150    1.5481    0.3093 H   0  0  0  1  0  0  0  0  0  0  0  0
   -1.8436    0.8387   -0.3324 C   0  0  0  1  0  0  0  0  0  0  0  0
   -0.6759    2.9000   -1.0511 N   0  0  0  1  0  0  0  0  0  0  0  0
   -0.9253    1.9938    0.0600 C   0  0  0  1  0  0  0  0  0  0  0  0
   -2.8393    1.0329   -1.0247 O   0  0  0  1  0  0  0  0  0  0  0  0
   -1.5314   -0.3865    0.0993 N   0  0  0  1  0  0  0  0  0  0  0  0
   -0.9227    3.8409   -0.9325 H   0  0  0  1  0  0  0  0  0  0  0  0
   -0.1367    2.5462   -2.2187 C   0  0  0  1  0  0  0  0  0  0  0  0
   -2.3988   -1.5336   -0.1233 C   0  0  0  1  0  0  0  0  0  0  0  0
   -0.0171    3.6508   -3.2506 C   0  0  0  1  0  0  0  0  0  0  0  0
    0.2443    1.4040   -2.4607 O   0  0  0  1  0  0  0  0  0  0  0  0
   -0.6890   -0.5172    0.5827 H   0  0  0  1  0  0  0  0  0  0  0  0
   -3.4215   -1.2237   -0.0705 H   0  0  0  1  0  0  0  0  0  0  0  0
   -2.2113   -2.2731    0.6270 H   0  0  0  1  0  0  0  0  0  0  0  0
   -2.2012   -1.9476   -1.0900 H   0  0  0  1  0  0  0  0  0  0  0  0
    0.7135    4.3630   -2.9284 H   0  0  0  1  0  0  0  0  0  0  0  0
   -0.9635    4.1371   -3.3635 H   0  0  0  1  0  0  0  0  0  0  0  0
    0.2832    3.2316   -4.1882 H   0  0  0  1  0  0  0  0  0  0  0  0
   -4.4032    8.2433    0.3789 I   0  0  0  1  0  0  0  0  0  0  0  0
   -3.4175    6.4271    0.6918 C   0  0  0  1  0  0  0  0  0  0  0  0
   -2.5641    6.2783    1.7740 C   0  0  0  1  0  0  0  0  0  0  0  0
   -1.9084    5.0788    1.9774 C   0  0  0  1  0  0  0  0  0  0  0  0
   -2.1083    4.0227    1.1021 C   0  0  0  1  0  0  0  0  0  0  0  0
   -2.9591    4.1708    0.0229 C   0  0  0  1  0  0  0  0  0  0  0  0
   -3.6167    5.3740   -0.1809 C   0  0  0  1  0  0  0  0  0  0  0  0
   -1.3965    2.7096    1.3270 C   0  0  0  1  0  0  0  0  0  0  0  0
   -2.4173    7.0693    2.4330 H   0  0  0  1  0  0  0  0  0  0  0  0
   -1.2651    4.9685    2.7871 H   0  0  0  1  0  0  0  0  0  0  0  0
   -3.1058    3.3797   -0.6360 H   0  0  0  1  0  0  0  0  0  0  0  0
   -4.2600    5.4843   -0.9906 H   0  0  0  1  0  0  0  0  0  0  0  0
   -0.5384    2.8996    1.9373 H   0  0  0  1  0  0  0  0  0  0  0  0
   -2.0661    2.0558    1.8458 H   0  0  0  1  0  0  0  0  0  0  0  0
  1  4  1  0  0  0  0
  2  4  1  0  0  0  0
  2  5  2  0  0  0  0
  2  6  1  0  0  0  0
  3  4  1  0  0  0  0
  3  7  1  0  0  0  0
  3  8  1  0  0  0  0
  4 26  1  0  0  0  0
  6  9  1  0  0  0  0
  6 12  1  0  0  0  0
  8 10  1  0  0  0  0
  8 11  2  0  0  0  0
  9 13  1  0  0  0  0
  9 14  1  0  0  0  0
  9 15  1  0  0  0  0
 10 16  1  0  0  0  0
 10 17  1  0  0  0  0
 10 18  1  0  0  0  0
 19 20  1  0  0  0  0
 20 21  4  0  0  0  0
 20 25  4  0  0  0  0
 21 22  4  0  0  0  0
 21 27  1  0  0  0  0
 22 23  4  0  0  0  0
 22 28  1  0  0  0  0
 23 24  4  0  0  0  0
 23 26  1  0  0  0  0
 24 25  4  0  0  0  0
 24 29  1  0  0  0  0
 25 30  1  0  0  0  0
 26 31  1  0  0  0  0
 26 32  1  0  0  0  0
M  END
> <BCLConfClusterSize>
1

> <ConfClashScore>
0 

> <ConfOneFourInteractionScore>
-0.962556 

> <ConfScore>
0.371574 

> <ConfScorePBest>
0.00233705 

> <ConfTolerance>
1.19639 

> <RosettaParamsInstructions>
M  ROOT 3
M  POLY_N_BB 3
M  POLY_CA_BB 4
M  POLY_C_BB 2
M  POLY_O_BB 5
M  POLY_IGNORE 9 10 11 12 13 14 15 16 17 18 
M  POLY_UPPER 6
M  POLY_LOWER 8
M  POLY_CHG 0
M  POLY_PROPERTIES ALPHA_AA L_AA PROTEIN AROMATIC POLYMER 
M  END

$$$$



 32 32  0  0  0  0  0  0  0  0999 V2000
   -1.2966    1.6999    3.1807 H   0  0  0  1  0  0  0  0  0  0  0  0
   -3.1820    2.6425    3.0494 C   0  0  0  1  0  0  0  0  0  0  0  0
   -2.4369    0.5811    1.8736 N   0  0  0  1  0  0  0  0  0  0  0  0
   -2.0337    1.8656    2.4231 C   0  0  0  1  0  0  0  0  0  0  0  0
   -4.2765    2.7101    2.4916 O   0  0  0  1  0  0  0  0  0  0  0  0
   -2.9643    3.2519    4.2296 N   0  0  0  1  0  0  0  0  0  0  0  0
   -2.1305    0.3515    0.9715 H   0  0  0  1  0  0  0  0  0  0  0  0
   -3.2059   -0.3147    2.5266 C   0  0  0  1  0  0  0  0  0  0  0  0
   -4.0627    3.8990    4.9314 C   0  0  0  1  0  0  0  0  0  0  0  0
   -3.6173   -1.5616    1.7926 C   0  0  0  1  0  0  0  0  0  0  0  0
   -3.5617   -0.1198    3.6881 O   0  0  0  1  0  0  0  0  0  0  0  0
   -2.0642    3.2598    4.6171 H   0  0  0  1  0  0  0  0  0  0  0  0
   -4.0524    4.9480    4.7207 H   0  0  0  1  0  0  0  0  0  0  0  0
   -3.9522    3.7459    5.9846 H   0  0  0  1  0  0  0  0  0  0  0  0
   -4.9911    3.4790    4.6048 H   0  0  0  1  0  0  0  0  0  0  0  0
   -4.4887   -1.3595    1.2056 H   0  0  0  1  0  0  0  0  0  0  0  0
   -3.8349   -2.3355    2.4988 H   0  0  0  1  0  0  0  0  0  0  0  0
   -2.8208   -1.8769    1.1514 H   0  0  0  1  0  0  0  0  0  0  0  0
   -4.4032    8.2433    0.3789 I   0  0  0  1  0  0  0  0  0  0  0  0
   -3.4175    6.4271    0.6918 C   0  0  0  1  0  0  0  0  0  0  0  0
   -2.5641    6.2783    1.7740 C   0  0  0  1  0  0  0  0  0  0  0  0
   -1.9084    5.0788    1.9774 C   0  0  0  1  0  0  0  0  0  0  0  0
   -2.1083    4.0227    1.1021 C   0  0  0  1  0  0  0  0  0  0  0  0
   -2.9591    4.1708    0.0229 C   0  0  0  1  0  0  0  0  0  0  0  0
   -3.6167    5.3740   -0.1809 C   0  0  0  1  0  0  0  0  0  0  0  0
   -1.3965    2.7096    1.3270 C   0  0  0  1  0  0  0  0  0  0  0  0
   -2.4173    7.0693    2.4330 H   0  0  0  1  0  0  0  0  0  0  0  0
   -1.2651    4.9685    2.7871 H   0  0  0  1  0  0  0  0  0  0  0  0
   -3.1058    3.3797   -0.6360 H   0  0  0  1  0  0  0  0  0  0  0  0
   -4.2600    5.4843   -0.9906 H   0  0  0  1  0  0  0  0  0  0  0  0
   -1.4142    2.1518    0.4140 H   0  0  0  1  0  0  0  0  0  0  0  0
   -0.3826    2.9143    1.6008 H   0  0  0  1  0  0  0  0  0  0  0  0
  1  4  1  0  0  0  0
  2  4  1  0  0  0  0
  2  5  2  0  0  0  0
  2  6  1  0  0  0  0
  3  4  1  0  0  0  0
  3  7  1  0  0  0  0
  3  8  1  0  0  0  0
  4 26  1  0  0  0  0
  6  9  1  0  0  0  0
  6 12  1  0  0  0  0
  8 10  1  0  0  0  0
  8 11  2  0  0  0  0
  9 13  1  0  0  0  0
  9 14  1  0  0  0  0
  9 15  1  0  0  0  0
 10 16  1  0  0  0  0
 10 17  1  0  0  0  0
 10 18  1  0  0  0  0
 19 20  1  0  0  0  0
 20 21  4  0  0  0  0
 20 25  4  0  0  0  0
 21 22  4  0  0  0  0
 21 27  1  0  0  0  0
 22 23  4  0  0  0  0
 22 28  1  0  0  0  0
 23 24  4  0  0  0  0
 23 26  1  0  0  0  0
 24 25  4  0  0  0  0
 24 29  1  0  0  0  0
 25 30  1  0  0  0  0
 26 31  1  0  0  0  0
 26 32  1  0  0  0  0
M  END
> <BCLConfClusterSize>
1

> <ConfClashScore>
0 

> <ConfOneFourInteractionScore>
-0.967834 

> <ConfScore>
0.385625 

> <ConfScorePBest>
0.00230857 

> <ConfTolerance>
1.17707 

> <RosettaParamsInstructions>
M  ROOT 3
M  POLY_N_BB 3
M  POLY_CA_BB 4
M  POLY_C_BB 2
M  POLY_O_BB 5
M  POLY_IGNORE 9 10 11 12 13 14 15 16 17 18 
M  POLY_UPPER 6
M  POLY_LOWER 8
M  POLY_CHG 0
M  POLY_PROPERTIES ALPHA_AA L_AA PROTEIN AROMATIC POLYMER 
M  END

$$$$



 32 32  0  0  0  0  0  0  0  0999 V2000
   -3.2392    1.9232    2.1080 H   0  0  0  1  0  0  0  0  0  0  0  0
   -1.9946    0.2607    1.7051 C   0  0  0  1  0  0  0  0  0  0  0  0
   -1.7606    1.9126    3.5518 N   0  0  0  1  0  0  0  0  0  0  0  0
   -2.1961    1.6956    2.1795 C   0  0  0  1  0  0  0  0  0  0  0  0
   -1.9592   -0.0239    0.5092 O   0  0  0  1  0  0  0  0  0  0  0  0
   -1.8653   -0.6208    2.7007 N   0  0  0  1  0  0  0  0  0  0  0  0
   -2.3739    2.3151    4.2016 H   0  0  0  1  0  0  0  0  0  0  0  0
   -0.5144    1.5608    3.9306 C   0  0  0  1  0  0  0  0  0  0  0  0
   -1.6824   -2.0431    2.4599 C   0  0  0  1  0  0  0  0  0  0  0  0
   -0.0592    1.9421    5.3258 C   0  0  0  1  0  0  0  0  0  0  0  0
    0.2312    0.9495    3.1698 O   0  0  0  1  0  0  0  0  0  0  0  0
   -1.8948   -0.2976    3.6254 H   0  0  0  1  0  0  0  0  0  0  0  0
   -2.2005   -2.3237    1.5668 H   0  0  0  1  0  0  0  0  0  0  0  0
   -2.0727   -2.5978    3.2875 H   0  0  0  1  0  0  0  0  0  0  0  0
   -0.6394   -2.2545    2.3484 H   0  0  0  1  0  0  0  0  0  0  0  0
    0.2004    1.0587    5.8708 H   0  0  0  1  0  0  0  0  0  0  0  0
   -0.8513    2.4533    5.8319 H   0  0  0  1  0  0  0  0  0  0  0  0
    0.7947    2.5835    5.2592 H   0  0  0  1  0  0  0  0  0  0  0  0
   -4.4677    8.2089    0.4001 I   0  0  0  1  0  0  0  0  0  0  0  0
   -3.3926    6.4384    0.6793 C   0  0  0  1  0  0  0  0  0  0  0  0
   -2.5471    6.2888    1.7675 C   0  0  0  1  0  0  0  0  0  0  0  0
   -1.9052    5.0841    1.9837 C   0  0  0  1  0  0  0  0  0  0  0  0
   -2.1111    4.0236    1.1151 C   0  0  0  1  0  0  0  0  0  0  0  0
   -2.9540    4.1725    0.0300 C   0  0  0  1  0  0  0  0  0  0  0  0
   -3.5978    5.3809   -0.1867 C   0  0  0  1  0  0  0  0  0  0  0  0
   -1.4422    2.6825    1.3031 C   0  0  0  1  0  0  0  0  0  0  0  0
   -2.3958    7.0833    2.4214 H   0  0  0  1  0  0  0  0  0  0  0  0
   -1.2678    4.9733    2.7979 H   0  0  0  1  0  0  0  0  0  0  0  0
   -3.1053    3.3781   -0.6239 H   0  0  0  1  0  0  0  0  0  0  0  0
   -4.2353    5.4918   -1.0009 H   0  0  0  1  0  0  0  0  0  0  0  0
   -1.3168    2.2380    0.3380 H   0  0  0  1  0  0  0  0  0  0  0  0
   -0.4829    2.8513    1.7460 H   0  0  0  1  0  0  0  0  0  0  0  0
  1  4  1  0  0  0  0
  2  4  1  0  0  0  0
  2  5  2  0  0  0  0
  2  6  1  0  0  0  0
  3  4  1  0  0  0  0
  3  7  1  0  0  0  0
  3  8  1  0  0  0  0
  4 26  1  0  0  0  0
  6  9  1  0  0  0  0
  6 12  1  0  0  0  0
  8 10  1  0  0  0  0
  8 11  2  0  0  0  0
  9 13  1  0  0  0  0
  9 14  1  0  0  0  0
  9 15  1  0  0  0  0
 10 16  1  0  0  0  0
 10 17  1  0  0  0  0
 10 18  1  0  0  0  0
 19 20  1  0  0  0  0
 20 21  4  0  0  0  0
 20 25  4  0  0  0  0
 21 22  4  0  0  0  0
 21 27  1  0  0  0  0
 22 23  4  0  0  0  0
 22 28  1  0  0  0  0
 23 24  4  0  0  0  0
 23 26  1  0  0  0  0
 24 25  4  0  0  0  0
 24 29  1  0  0  0  0
 25 30  1  0  0  0  0
 26 31  1  0  0  0  0
 26 32  1  0  0  0  0
M  END
> <BCLConfClusterSize>
1

> <ConfClashScore>
0 

> <ConfOneFourInteractionScore>
-0.950043 

> <ConfScore>
0.402116 

> <ConfScorePBest>
0.00228009 

> <ConfTolerance>
1.11328 

> <RosettaParamsInstructions>
M  ROOT 3
M  POLY_N_BB 3
M  POLY_CA_BB 4
M  POLY_C_BB 2
M  POLY_O_BB 5
M  POLY_IGNORE 9 10 11 12 13 14 15 16 17 18 
M  POLY_UPPER 6
M  POLY_LOWER 8
M  POLY_CHG 0
M  POLY_PROPERTIES ALPHA_AA L_AA PROTEIN AROMATIC POLYMER 
M  END

$$$$



 32 32  0  0  0  0  0  0  0  0999 V2000
    0.5865    3.4316    1.0955 H   0  0  0  1  0  0  0  0  0  0  0  0
    0.6688    1.3189    0.9622 C   0  0  0  1  0  0  0  0  0  0  0  0
   -0.1112    2.8625   -0.7691 N   0  0  0  1  0  0  0  0  0  0  0  0
   -0.0121    2.6529    0.6710 C   0  0  0  1  0  0  0  0  0  0  0  0
    1.3607    1.1675    1.9656 O   0  0  0  1  0  0  0  0  0  0  0  0
    0.5176    0.3890    0.0179 N   0  0  0  1  0  0  0  0  0  0  0  0
   -0.9911    2.9578   -1.1899 H   0  0  0  1  0  0  0  0  0  0  0  0
    1.0059    2.9254   -1.5230 C   0  0  0  1  0  0  0  0  0  0  0  0
    1.1323   -0.9264    0.1168 C   0  0  0  1  0  0  0  0  0  0  0  0
    2.3300    3.1127   -0.8174 C   0  0  0  1  0  0  0  0  0  0  0  0
    0.9516    2.8332   -2.7486 O   0  0  0  1  0  0  0  0  0  0  0  0
   -0.0262    0.5988   -0.7698 H   0  0  0  1  0  0  0  0  0  0  0  0
    1.2948   -1.3195   -0.8650 H   0  0  0  1  0  0  0  0  0  0  0  0
    0.4850   -1.5823    0.6607 H   0  0  0  1  0  0  0  0  0  0  0  0
    2.0690   -0.8447    0.6275 H   0  0  0  1  0  0  0  0  0  0  0  0
    2.3904    4.1082   -0.4297 H   0  0  0  1  0  0  0  0  0  0  0  0
    3.1291    2.9510   -1.5103 H   0  0  0  1  0  0  0  0  0  0  0  0
    2.4074    2.4116   -0.0128 H   0  0  0  1  0  0  0  0  0  0  0  0
   -4.4034    8.2436    0.3789 I   0  0  0  1  0  0  0  0  0  0  0  0
   -3.4177    6.4274    0.6917 C   0  0  0  1  0  0  0  0  0  0  0  0
   -2.5643    6.2786    1.7739 C   0  0  0  1  0  0  0  0  0  0  0  0
   -1.9086    5.0791    1.9773 C   0  0  0  1  0  0  0  0  0  0  0  0
   -2.1084    4.0230    1.1020 C   0  0  0  1  0  0  0  0  0  0  0  0
   -2.9592    4.1711    0.0229 C   0  0  0  1  0  0  0  0  0  0  0  0
   -3.6168    5.3743   -0.1810 C   0  0  0  1  0  0  0  0  0  0  0  0
   -1.3946    2.7061    1.3276 C   0  0  0  1  0  0  0  0  0  0  0  0
   -2.4175    7.0697    2.4329 H   0  0  0  1  0  0  0  0  0  0  0  0
   -1.2653    4.9688    2.7870 H   0  0  0  1  0  0  0  0  0  0  0  0
   -3.1060    3.3801   -0.6361 H   0  0  0  1  0  0  0  0  0  0  0  0
   -4.2601    5.4846   -0.9907 H   0  0  0  1  0  0  0  0  0  0  0  0
   -1.2772    2.5583    2.3808 H   0  0  0  1  0  0  0  0  0  0  0  0
   -1.9951    1.9192    0.9213 H   0  0  0  1  0  0  0  0  0  0  0  0
  1  4  1  0  0  0  0
  2  4  1  0  0  0  0
  2  5  2  0  0  0  0
  2  6  1  0  0  0  0
  3  4  1  0  0  0  0
  3  7  1  0  0  0  0
  3  8  1  0  0  0  0
  4 26  1  0  0  0  0
  6  9  1  0  0  0  0
  6 12  1  0  0  0  0
  8 10  1  0  0  0  0
  8 11  2  0  0  0  0
  9 13  1  0  0  0  0
  9 14  1  0  0  0  0
  9 15  1  0  0  0  0
 10 16  1  0  0  0  0
 10 17  1  0  0  0  0
 10 18  1  0  0  0  0
 19 20  1  0  0  0  0
 20 21  4  0  0  0  0
 20 25  4  0  0  0  0
 21 22  4  0  0  0  0
 21 27  1  0  0  0  0
 22 23  4  0  0  0  0
 22 28  1  0  0  0  0
 23 24  4  0  0  0  0
 23 26  1  0  0  0  0
 24 25  4  0  0  0  0
 24 29  1  0  0  0  0
 25 30  1  0  0  0  0
 26 31  1  0  0  0  0
 26 32  1  0  0  0  0
M  END
> <BCLConfClusterSize>
1

> <ConfClashScore>
0 

> <ConfOneFourInteractionScore>
-0.94165 

> <ConfScore>
0.424059 

> <ConfScorePBest>
0.00225161 

> <ConfTolerance>
1.48511 

> <RosettaParamsInstructions>
M  ROOT 3
M  POLY_N_BB 3
M  POLY_CA_BB 4
M  POLY_C_BB 2
M  POLY_O_BB 5
M  POLY_IGNORE 9 10 11 12 13 14 15 16 17 18 
M  POLY_UPPER 6
M  POLY_LOWER 8
M  POLY_CHG 0
M  POLY_PROPERTIES ALPHA_AA L_AA PROTEIN AROMATIC POLYMER 
M  END

$$$$



 32 32  0  0  0  0  0  0  0  0999 V2000
   -2.7612    1.9740    2.7755 H   0  0  0  1  0  0  0  0  0  0  0  0
   -3.4318    1.3141    0.8833 C   0  0  0  1  0  0  0  0  0  0  0  0
   -1.5663    0.4018    2.1626 N   0  0  0  1  0  0  0  0  0  0  0  0
   -2.3171    1.6139    1.8711 C   0  0  0  1  0  0  0  0  0  0  0  0
   -4.5467    1.8219    0.9955 O   0  0  0  1  0  0  0  0  0  0  0  0
   -3.0746    0.4625   -0.0911 N   0  0  0  1  0  0  0  0  0  0  0  0
   -1.8206   -0.4315    1.7139 H   0  0  0  1  0  0  0  0  0  0  0  0
   -0.5036    0.3850    3.0531 C   0  0  0  1  0  0  0  0  0  0  0  0
   -3.9914    0.0617   -1.1478 C   0  0  0  1  0  0  0  0  0  0  0  0
    0.0894   -0.9354    3.4578 C   0  0  0  1  0  0  0  0  0  0  0  0
   -0.0844    1.4456    3.4794 O   0  0  0  1  0  0  0  0  0  0  0  0
   -2.1649    0.0981   -0.0908 H   0  0  0  1  0  0  0  0  0  0  0  0
   -4.3364    0.9298   -1.6696 H   0  0  0  1  0  0  0  0  0  0  0  0
   -4.8265   -0.4519   -0.7193 H   0  0  0  1  0  0  0  0  0  0  0  0
   -3.4853   -0.5874   -1.8315 H   0  0  0  1  0  0  0  0  0  0  0  0
    0.4855   -1.4286    2.5948 H   0  0  0  1  0  0  0  0  0  0  0  0
   -0.6695   -1.5462    3.9005 H   0  0  0  1  0  0  0  0  0  0  0  0
    0.8743   -0.7715    4.1663 H   0  0  0  1  0  0  0  0  0  0  0  0
   -4.4032    8.2433    0.3789 I   0  0  0  1  0  0  0  0  0  0  0  0
   -3.4175    6.4271    0.6918 C   0  0  0  1  0  0  0  0  0  0  0  0
   -2.5641    6.2783    1.7740 C   0  0  0  1  0  0  0  0  0  0  0  0
   -1.9084    5.0788    1.9774 C   0  0  0  1  0  0  0  0  0  0  0  0
   -2.1083    4.0227    1.1021 C   0  0  0  1  0  0  0  0  0  0  0  0
   -2.9591    4.1708    0.0229 C   0  0  0  1  0  0  0  0  0  0  0  0
   -3.6167    5.3740   -0.1809 C   0  0  0  1  0  0  0  0  0  0  0  0
   -1.3965    2.7096    1.3270 C   0  0  0  1  0  0  0  0  0  0  0  0
   -2.4173    7.0693    2.4330 H   0  0  0  1  0  0  0  0  0  0  0  0
   -1.2651    4.9685    2.7871 H   0  0  0  1  0  0  0  0  0  0  0  0
   -3.1058    3.3797   -0.6360 H   0  0  0  1  0  0  0  0  0  0  0  0
   -4.2600    5.4843   -0.9906 H   0  0  0  1  0  0  0  0  0  0  0  0
   -0.9882    2.3795    0.3947 H   0  0  0  1  0  0  0  0  0  0  0  0
   -0.6038    2.8676    2.0281 H   0  0  0  1  0  0  0  0  0  0  0  0
  1  4  1  0  0  0  0
  2  4  1  0  0  0  0
  2  5  2  0  0  0  0
  2  6  1  0  0  0  0
  3  4  1  0  0  0  0
  3  7  1  0  0  0  0
  3  8  1  0  0  0  0
  4 26  1  0  0  0  0
  6  9  1  0  0  0  0
  6 12  1  0  0  0  0
  8 10  1  0  0  0  0
  8 11  2  0  0  0  0
  9 13  1  0  0  0  0
  9 14  1  0  0  0  0
  9 15  1  0  0  0  0
 10 16  1  0  0  0  0
 10 17  1  0  0  0  0
 10 18  1  0  0  0  0
 19 20  1  0  0  0  0
 20 21  4  0  0  0  0
 20 25  4  0  0  0  0
 21 22  4  0  0  0  0
 21 27  1  0  0  0  0
 22 23  4  0  0  0  0
 22 28  1  0  0  0  0
 23 24  4  0  0  0  0
 23 26  1  0  0  0  0
 24 25  4  0  0  0  0
 24 29  1  0  0  0  0
 25 30  1  0  0  0  0
 26 31  1  0  0  0  0
 26 32  1  0  0  0  0
M  END
> <BCLConfClusterSize>
1

> <ConfClashScore>
0 

> <ConfOneFourInteractionScore>
-0.962347 

> <ConfScore>
0.460384 

> <ConfScorePBest>
0.00222313 

> <ConfTolerance>
0.991005 

> <RosettaParamsInstructions>
M  ROOT 3
M  POLY_N_BB 3
M  POLY_CA_BB 4
M  POLY_C_BB 2
M  POLY_O_BB 5
M  POLY_IGNORE 9 10 11 12 13 14 15 16 17 18 
M  POLY_UPPER 6
M  POLY_LOWER 8
M  POLY_CHG 0
M  POLY_PROPERTIES ALPHA_AA L_AA PROTEIN AROMATIC POLYMER 
M  END

$$$$



 32 32  0  0  0  0  0  0  0  0999 V2000
   -1.5117    2.5220   -0.7842 H   0  0  0  1  0  0  0  0  0  0  0  0
    0.3407    1.6925   -0.1779 C   0  0  0  1  0  0  0  0  0  0  0  0
   -1.8641    0.6610    0.0461 N   0  0  0  1  0  0  0  0  0  0  0  0
   -1.1519    1.9300    0.0312 C   0  0  0  1  0  0  0  0  0  0  0  0
    0.8632    0.6176    0.1141 O   0  0  0  1  0  0  0  0  0  0  0  0
    1.0286    2.7233   -0.6940 N   0  0  0  1  0  0  0  0  0  0  0  0
   -1.3627   -0.1607    0.2304 H   0  0  0  1  0  0  0  0  0  0  0  0
   -3.1833    0.5767   -0.1838 C   0  0  0  1  0  0  0  0  0  0  0  0
    2.4762    2.6961   -0.8410 C   0  0  0  1  0  0  0  0  0  0  0  0
   -3.7507   -0.8275   -0.2575 C   0  0  0  1  0  0  0  0  0  0  0  0
   -3.8965    1.5561   -0.3271 O   0  0  0  1  0  0  0  0  0  0  0  0
    0.5389    3.5219   -0.9819 H   0  0  0  1  0  0  0  0  0  0  0  0
    2.8441    1.7272   -0.5751 H   0  0  0  1  0  0  0  0  0  0  0  0
    2.9135    3.4319   -0.1989 H   0  0  0  1  0  0  0  0  0  0  0  0
    2.7353    2.9093   -1.8570 H   0  0  0  1  0  0  0  0  0  0  0  0
   -3.5553   -1.3404    0.6610 H   0  0  0  1  0  0  0  0  0  0  0  0
   -3.2902   -1.3561   -1.0658 H   0  0  0  1  0  0  0  0  0  0  0  0
   -4.8072   -0.7769   -0.4197 H   0  0  0  1  0  0  0  0  0  0  0  0
   -4.4032    8.2433    0.3789 I   0  0  0  1  0  0  0  0  0  0  0  0
   -3.4175    6.4271    0.6918 C   0  0  0  1  0  0  0  0  0  0  0  0
   -2.5641    6.2783    1.7740 C   0  0  0  1  0  0  0  0  0  0  0  0
   -1.9084    5.0788    1.9774 C   0  0  0  1  0  0  0  0  0  0  0  0
   -2.1083    4.0227    1.1021 C   0  0  0  1  0  0  0  0  0  0  0  0
   -2.9591    4.1708    0.0229 C   0  0  0  1  0  0  0  0  0  0  0  0
   -3.6167    5.3740   -0.1809 C   0  0  0  1  0  0  0  0  0  0  0  0
   -1.3965    2.7096    1.3270 C   0  0  0  1  0  0  0  0  0  0  0  0
   -2.4173    7.0693    2.4330 H   0  0  0  1  0  0  0  0  0  0  0  0
   -1.2651    4.9685    2.7871 H   0  0  0  1  0  0  0  0  0  0  0  0
   -3.1058    3.3797   -0.6360 H   0  0  0  1  0  0  0  0  0  0  0  0
   -4.2600    5.4843   -0.9906 H   0  0  0  1  0  0  0  0  0  0  0  0
   -0.4517    2.9089    1.7880 H   0  0  0  1  0  0  0  0  0  0  0  0
   -1.9924    2.1067    1.9799 H   0  0  0  1  0  0  0  0  0  0  0  0
  1  4  1  0  0  0  0
  2  4  1  0  0  0  0
  2  5  2  0  0  0  0
  2  6  1  0  0  0  0
  3  4  1  0  0  0  0
  3  7  1  0  0  0  0
  3  8  1  0  0  0  0
  4 26  1  0  0  0  0
  6  9  1  0  0  0  0
  6 12  1  0  0  0  0
  8 10  1  0  0  0  0
  8 11  2  0  0  0  0
  9 13  1  0  0  0  0
  9 14  1  0  0  0  0
  9 15  1  0  0  0  0
 10 16  1  0  0  0  0
 10 17  1  0  0  0  0
 10 18  1  0  0  0  0
 19 20  1  0  0  0  0
 20 21  4  0  0  0  0
 20 25  4  0  0  0  0
 21 22  4  0  0  0  0
 21 27  1  0  0  0  0
 22 23  4  0  0  0  0
 22 28  1  0  0  0  0
 23 24  4  0  0  0  0
 23 26  1  0  0  0  0
 24 25  4  0  0  0  0
 24 29  1  0  0  0  0
 25 30  1  0  0  0  0
 26 31  1  0  0  0  0
 26 32  1  0  0  0  0
M  END
> <BCLConfClusterSize>
1

> <ConfClashScore>
0 

> <ConfOneFourInteractionScore>
-0.971577 

> <ConfScore>
0.473991 

> <ConfScorePBest>
0.00219465 

> <ConfTolerance>
1.52365 

> <RosettaParamsInstructions>
M  ROOT 3
M  POLY_N_BB 3
M  POLY_CA_BB 4
M  POLY_C_BB 2
M  POLY_O_BB 5
M  POLY_IGNORE 9 10 11 12 13 14 15 16 17 18 
M  POLY_UPPER 6
M  POLY_LOWER 8
M  POLY_CHG 0
M  POLY_PROPERTIES ALPHA_AA L_AA PROTEIN AROMATIC POLYMER 
M  END

$$$$



 32 32  0  0  0  0  0  0  0  0999 V2000
   -1.6940    0.7208    1.8423 H   0  0  0  1  0  0  0  0  0  0  0  0
   -3.3535    1.7359    2.5933 C   0  0  0  1  0  0  0  0  0  0  0  0
   -2.9011    1.1092    0.2469 N   0  0  0  1  0  0  0  0  0  0  0  0
   -2.3085    1.5303    1.5076 C   0  0  0  1  0  0  0  0  0  0  0  0
   -3.1118    2.4332    3.5777 O   0  0  0  1  0  0  0  0  0  0  0  0
   -4.5445    1.1346    2.4450 N   0  0  0  1  0  0  0  0  0  0  0  0
   -3.8701    0.9699    0.2029 H   0  0  0  1  0  0  0  0  0  0  0  0
   -2.1699    0.9059   -0.8527 C   0  0  0  1  0  0  0  0  0  0  0  0
   -5.6070    1.2601    3.4315 C   0  0  0  1  0  0  0  0  0  0  0  0
   -2.9313    0.4154   -2.0688 C   0  0  0  1  0  0  0  0  0  0  0  0
   -0.9555    1.0987   -0.8948 O   0  0  0  1  0  0  0  0  0  0  0  0
   -4.7040    0.5922    1.6445 H   0  0  0  1  0  0  0  0  0  0  0  0
   -5.5512    2.2224    3.8960 H   0  0  0  1  0  0  0  0  0  0  0  0
   -5.4950    0.4985    4.1747 H   0  0  0  1  0  0  0  0  0  0  0  0
   -6.5559    1.1516    2.9491 H   0  0  0  1  0  0  0  0  0  0  0  0
   -3.9801    0.4133   -1.8566 H   0  0  0  1  0  0  0  0  0  0  0  0
   -2.6147   -0.5775   -2.3110 H   0  0  0  1  0  0  0  0  0  0  0  0
   -2.7365    1.0644   -2.8969 H   0  0  0  1  0  0  0  0  0  0  0  0
   -4.4007    8.2454    0.3836 I   0  0  0  1  0  0  0  0  0  0  0  0
   -3.4178    6.4267    0.6912 C   0  0  0  1  0  0  0  0  0  0  0  0
   -2.5636    6.2739    1.7722 C   0  0  0  1  0  0  0  0  0  0  0  0
   -1.9097    5.0728    1.9721 C   0  0  0  1  0  0  0  0  0  0  0  0
   -2.1123    4.0191    1.0945 C   0  0  0  1  0  0  0  0  0  0  0  0
   -2.9639    4.1713    0.0166 C   0  0  0  1  0  0  0  0  0  0  0  0
   -3.6196    5.3760   -0.1838 C   0  0  0  1  0  0  0  0  0  0  0  0
   -1.3776    2.7270    1.3628 C   0  0  0  1  0  0  0  0  0  0  0  0
   -2.4148    7.0632    2.4329 H   0  0  0  1  0  0  0  0  0  0  0  0
   -1.2658    4.9596    2.7809 H   0  0  0  1  0  0  0  0  0  0  0  0
   -3.1127    3.3820   -0.6441 H   0  0  0  1  0  0  0  0  0  0  0  0
   -4.2635    5.4893   -0.9926 H   0  0  0  1  0  0  0  0  0  0  0  0
   -0.7077    2.5409    0.5494 H   0  0  0  1  0  0  0  0  0  0  0  0
   -0.8183    2.8349    2.2686 H   0  0  0  1  0  0  0  0  0  0  0  0
  1  4  1  0  0  0  0
  2  4  1  0  0  0  0
  2  5  2  0  0  0  0
  2  6  1  0  0  0  0
  3  4  1  0  0  0  0
  3  7  1  0  0  0  0
  3  8  1  0  0  0  0
  4 26  1  0  0  0  0
  6  9  1  0  0  0  0
  6 12  1  0  0  0  0
  8 10  1  0  0  0  0
  8 11  2  0  0  0  0
  9 13  1  0  0  0  0
  9 14  1  0  0  0  0
  9 15  1  0  0  0  0
 10 16  1  0  0  0  0
 10 17  1  0  0  0  0
 10 18  1  0  0  0  0
 19 20  1  0  0  0  0
 20 21  4  0  0  0  0
 20 25  4  0  0  0  0
 21 22  4  0  0  0  0
 21 27  1  0  0  0  0
 22 23  4  0  0  0  0
 22 28  1  0  0  0  0
 23 24  4  0  0  0  0
 23 26  1  0  0  0  0
 24 25  4  0  0  0  0
 24 29  1  0  0  0  0
 25 30  1  0  0  0  0
 26 31  1  0  0  0  0
 26 32  1  0  0  0  0
M  END
> <BCLConfClusterSize>
1

> <ConfClashScore>
0 

> <ConfOneFourInteractionScore>
-0.957723 

> <ConfScore>
0.506432 

> <ConfScorePBest>
0.00216617 

> <ConfTolerance>
2.0309 

> <RosettaParamsInstructions>
M  ROOT 3
M  POLY_N_BB 3
M  POLY_CA_BB 4
M  POLY_C_BB 2
M  POLY_O_BB 5
M  POLY_IGNORE 9 10 11 12 13 14 15 16 17 18 
M  POLY_UPPER 6
M  POLY_LOWER 8
M  POLY_CHG 0
M  POLY_PROPERTIES ALPHA_AA L_AA PROTEIN AROMATIC POLYMER 
M  END

$$$$
