


 32 32  0  0  0  0  0  0  0  0999 V2000
   -0.6603    2.5348   -0.6225 H   0  0  0  1  0  0  0  0  0  0  0  0
   -0.3348    0.6828    0.2798 C   0  0  0  1  0  0  0  0  0  0  0  0
   -2.4791    1.6077   -0.5832 N   0  0  0  1  0  0  0  0  0  0  0  0
   -1.2031    1.9045    0.0505 C   0  0  0  1  0  0  0  0  0  0  0  0
    0.8927    0.7606    0.3106 O   0  0  0  1  0  0  0  0  0  0  0  0
   -1.0293   -0.4474    0.4389 N   0  0  0  1  0  0  0  0  0  0  0  0
   -3.3159    1.7930   -0.1080 H   0  0  0  1  0  0  0  0  0  0  0  0
   -2.5134    1.0634   -1.8580 C   0  0  0  1  0  0  0  0  0  0  0  0
   -0.3839   -1.7284    0.6844 C   0  0  0  1  0  0  0  0  0  0  0  0
   -3.8380    0.6079   -2.4272 C   0  0  0  1  0  0  0  0  0  0  0  0
   -1.4705    0.9699   -2.4794 O   0  0  0  1  0  0  0  0  0  0  0  0
   -2.0074   -0.4126    0.3885 H   0  0  0  1  0  0  0  0  0  0  0  0
    0.5325   -1.5710    1.2139 H   0  0  0  1  0  0  0  0  0  0  0  0
   -0.1781   -2.2086   -0.2493 H   0  0  0  1  0  0  0  0  0  0  0  0
   -1.0316   -2.3476    1.2693 H   0  0  0  1  0  0  0  0  0  0  0  0
   -4.5657    1.3822   -2.3019 H   0  0  0  1  0  0  0  0  0  0  0  0
   -4.1627   -0.2728   -1.9135 H   0  0  0  1  0  0  0  0  0  0  0  0
   -3.7230    0.3919   -3.4688 H   0  0  0  1  0  0  0  0  0  0  0  0
   -4.1397    3.3020    1.6037 F   0  0  0  1  0  0  0  0  0  0  0  0
   -3.3318    4.3116    1.2268 C   0  0  0  1  0  0  0  0  0  0  0  0
   -1.9715    4.0913    1.0765 C   0  0  0  1  0  0  0  0  0  0  0  0
   -1.1417    5.1287    0.6949 C   0  0  0  1  0  0  0  0  0  0  0  0
   -1.6704    6.3879    0.4572 C   0  0  0  1  0  0  0  0  0  0  0  0
   -3.0268    6.6072    0.6071 C   0  0  0  1  0  0  0  0  0  0  0  0
   -3.8591    5.5669    0.9899 C   0  0  0  1  0  0  0  0  0  0  0  0
   -1.3962    2.7179    1.3298 C   0  0  0  1  0  0  0  0  0  0  0  0
   -0.1205    4.9645    0.5860 H   0  0  0  1  0  0  0  0  0  0  0  0
   -1.0466    7.1674    0.1661 H   0  0  0  1  0  0  0  0  0  0  0  0
   -3.4230    7.5528    0.4327 H   0  0  0  1  0  0  0  0  0  0  0  0
   -4.8803    5.7310    1.0988 H   0  0  0  1  0  0  0  0  0  0  0  0
   -0.4460    2.8298    1.8089 H   0  0  0  1  0  0  0  0  0  0  0  0
   -2.0613    2.1839    1.9758 H   0  0  0  1  0  0  0  0  0  0  0  0
  1  4  1  0  0  0  0
  2  4  1  0  0  0  0
  2  5  2  0  0  0  0
  2  6  1  0  0  0  0
  3  4  1  0  0  0  0
  3  7  1  0  0  0  0
  3  8  1  0  0  0  0
  4 26  1  0  0  0  0
  6  9  1  0  0  0  0
  6 12  1  0  0  0  0
  8 10  1  0  0  0  0
  8 11  2  0  0  0  0
  9 13  1  0  0  0  0
  9 14  1  0  0  0  0
  9 15  1  0  0  0  0
 10 16  1  0  0  0  0
 10 17  1  0  0  0  0
 10 18  1  0  0  0  0
 19 20  1  0  0  0  0
 20 21  4  0  0  0  0
 20 25  4  0  0  0  0
 21 22  4  0  0  0  0
 21 26  1  0  0  0  0
 22 23  4  0  0  0  0
 22 27  1  0  0  0  0
 23 24  4  0  0  0  0
 23 28  1  0  0  0  0
 24 25  4  0  0  0  0
 24 29  1  0  0  0  0
 25 30  1  0  0  0  0
 26 31  1  0  0  0  0
 26 32  1  0  0  0  0
M  END
> <BCLConfClusterSize>
1

> <ConfClashScore>
0 

> <ConfOneFourInteractionScore>
-0.960318 

> <ConfScore>
-0.307138 

> <ConfScorePBest>
0.00783383 

> <ConfTolerance>
0.171932 

> <RosettaParamsInstructions>
M  ROOT 3
M  POLY_N_BB 3
M  POLY_CA_BB 4
M  POLY_C_BB 2
M  POLY_O_BB 5
M  POLY_IGNORE 9 10 11 12 13 14 15 16 17 18 
M  POLY_UPPER 6
M  POLY_LOWER 8
M  POLY_CHG 0
M  POLY_PROPERTIES ALPHA_AA L_AA PROTEIN AROMATIC POLYMER 
M  END

$$$$



 32 32  0  0  0  0  0  0  0  0999 V2000
   -1.5856    2.8142    3.4582 H   0  0  0  1  0  0  0  0  0  0  0  0
   -0.3985    1.1314    2.9231 C   0  0  0  1  0  0  0  0  0  0  0  0
    0.3329    3.4300    2.9262 N   0  0  0  1  0  0  0  0  0  0  0  0
   -0.8281    2.5742    2.7416 C   0  0  0  1  0  0  0  0  0  0  0  0
   -1.1456    0.3033    3.4418 O   0  0  0  1  0  0  0  0  0  0  0  0
    0.8261    0.8322    2.4871 N   0  0  0  1  0  0  0  0  0  0  0  0
    0.5255    4.1172    2.2546 H   0  0  0  1  0  0  0  0  0  0  0  0
    1.1719    3.3083    4.0130 C   0  0  0  1  0  0  0  0  0  0  0  0
    1.3757   -0.5125    2.5750 C   0  0  0  1  0  0  0  0  0  0  0  0
    2.4227    4.1369    3.9723 C   0  0  0  1  0  0  0  0  0  0  0  0
    0.8793    2.5633    4.9291 O   0  0  0  1  0  0  0  0  0  0  0  0
    1.3749    1.5426    2.0939 H   0  0  0  1  0  0  0  0  0  0  0  0
    0.9237   -1.0301    3.3951 H   0  0  0  1  0  0  0  0  0  0  0  0
    2.4331   -0.4560    2.7283 H   0  0  0  1  0  0  0  0  0  0  0  0
    1.1742   -1.0399    1.6661 H   0  0  0  1  0  0  0  0  0  0  0  0
    2.1654    5.1652    3.8264 H   0  0  0  1  0  0  0  0  0  0  0  0
    3.0429    3.8067    3.1653 H   0  0  0  1  0  0  0  0  0  0  0  0
    2.9516    4.0296    4.8963 H   0  0  0  1  0  0  0  0  0  0  0  0
   -4.1389    3.2979    1.5956 F   0  0  0  1  0  0  0  0  0  0  0  0
   -3.3300    4.3091    1.2253 C   0  0  0  1  0  0  0  0  0  0  0  0
   -1.9732    4.0904    1.0784 C   0  0  0  1  0  0  0  0  0  0  0  0
   -1.1416    5.1299    0.6921 C   0  0  0  1  0  0  0  0  0  0  0  0
   -1.6682    6.3863    0.4590 C   0  0  0  1  0  0  0  0  0  0  0  0
   -3.0289    6.6056    0.6063 C   0  0  0  1  0  0  0  0  0  0  0  0
   -3.8583    5.5692    0.9915 C   0  0  0  1  0  0  0  0  0  0  0  0
   -1.3992    2.7246    1.3377 C   0  0  0  1  0  0  0  0  0  0  0  0
   -0.1212    4.9644    0.5777 H   0  0  0  1  0  0  0  0  0  0  0  0
   -1.0435    7.1671    0.1730 H   0  0  0  1  0  0  0  0  0  0  0  0
   -3.4258    7.5500    0.4270 H   0  0  0  1  0  0  0  0  0  0  0  0
   -4.8787    5.7348    1.1059 H   0  0  0  1  0  0  0  0  0  0  0  0
   -2.1742    1.9988    1.2057 H   0  0  0  1  0  0  0  0  0  0  0  0
   -0.6167    2.5442    0.6306 H   0  0  0  1  0  0  0  0  0  0  0  0
  1  4  1  0  0  0  0
  2  4  1  0  0  0  0
  2  5  2  0  0  0  0
  2  6  1  0  0  0  0
  3  4  1  0  0  0  0
  3  7  1  0  0  0  0
  3  8  1  0  0  0  0
  4 26  1  0  0  0  0
  6  9  1  0  0  0  0
  6 12  1  0  0  0  0
  8 10  1  0  0  0  0
  8 11  2  0  0  0  0
  9 13  1  0  0  0  0
  9 14  1  0  0  0  0
  9 15  1  0  0  0  0
 10 16  1  0  0  0  0
 10 17  1  0  0  0  0
 10 18  1  0  0  0  0
 19 20  1  0  0  0  0
 20 21  4  0  0  0  0
 20 25  4  0  0  0  0
 21 22  4  0  0  0  0
 21 26  1  0  0  0  0
 22 23  4  0  0  0  0
 22 27  1  0  0  0  0
 23 24  4  0  0  0  0
 23 28  1  0  0  0  0
 24 25  4  0  0  0  0
 24 29  1  0  0  0  0
 25 30  1  0  0  0  0
 26 31  1  0  0  0  0
 26 32  1  0  0  0  0
M  END
> <BCLConfClusterSize>
1

> <ConfClashScore>
0 

> <ConfOneFourInteractionScore>
-0.956443 

> <ConfScore>
-0.306225 

> <ConfScorePBest>
0.00780535 

> <ConfTolerance>
0.185096 

> <RosettaParamsInstructions>
M  ROOT 3
M  POLY_N_BB 3
M  POLY_CA_BB 4
M  POLY_C_BB 2
M  POLY_O_BB 5
M  POLY_IGNORE 9 10 11 12 13 14 15 16 17 18 
M  POLY_UPPER 6
M  POLY_LOWER 8
M  POLY_CHG 0
M  POLY_PROPERTIES ALPHA_AA L_AA PROTEIN AROMATIC POLYMER 
M  END

$$$$



 32 32  0  0  0  0  0  0  0  0999 V2000
   -0.6971    2.1120   -0.5405 H   0  0  0  1  0  0  0  0  0  0  0  0
   -0.8942    0.3726    0.6083 C   0  0  0  1  0  0  0  0  0  0  0  0
   -2.6919    1.6440   -0.4728 N   0  0  0  1  0  0  0  0  0  0  0  0
   -1.3945    1.7384    0.1799 C   0  0  0  1  0  0  0  0  0  0  0  0
    0.2875    0.0789    0.5325 O   0  0  0  1  0  0  0  0  0  0  0  0
   -1.8252   -0.4692    1.0661 N   0  0  0  1  0  0  0  0  0  0  0  0
   -3.4533    2.1221   -0.0830 H   0  0  0  1  0  0  0  0  0  0  0  0
   -2.8827    0.9212   -1.5959 C   0  0  0  1  0  0  0  0  0  0  0  0
   -1.5037   -1.8177    1.5088 C   0  0  0  1  0  0  0  0  0  0  0  0
   -4.2632    0.9296   -2.2231 C   0  0  0  1  0  0  0  0  0  0  0  0
   -1.9654    0.2734   -2.0983 O   0  0  0  1  0  0  0  0  0  0  0  0
   -2.7570   -0.1682    1.1050 H   0  0  0  1  0  0  0  0  0  0  0  0
   -0.7258   -2.2197    0.8938 H   0  0  0  1  0  0  0  0  0  0  0  0
   -2.3741   -2.4352    1.4316 H   0  0  0  1  0  0  0  0  0  0  0  0
   -1.1748   -1.7898    2.5266 H   0  0  0  1  0  0  0  0  0  0  0  0
   -4.5227    1.9295   -2.5020 H   0  0  0  1  0  0  0  0  0  0  0  0
   -4.9775    0.5597   -1.5175 H   0  0  0  1  0  0  0  0  0  0  0  0
   -4.2636    0.3055   -3.0922 H   0  0  0  1  0  0  0  0  0  0  0  0
   -4.1397    3.3019    1.6037 F   0  0  0  1  0  0  0  0  0  0  0  0
   -3.3319    4.3114    1.2268 C   0  0  0  1  0  0  0  0  0  0  0  0
   -1.9715    4.0915    1.0765 C   0  0  0  1  0  0  0  0  0  0  0  0
   -1.1416    5.1287    0.6948 C   0  0  0  1  0  0  0  0  0  0  0  0
   -1.6705    6.3877    0.4572 C   0  0  0  1  0  0  0  0  0  0  0  0
   -3.0268    6.6073    0.6071 C   0  0  0  1  0  0  0  0  0  0  0  0
   -3.8591    5.5669    0.9899 C   0  0  0  1  0  0  0  0  0  0  0  0
   -1.3961    2.7181    1.3297 C   0  0  0  1  0  0  0  0  0  0  0  0
   -0.1204    4.9645    0.5860 H   0  0  0  1  0  0  0  0  0  0  0  0
   -1.0466    7.1673    0.1662 H   0  0  0  1  0  0  0  0  0  0  0  0
   -3.4230    7.5530    0.4327 H   0  0  0  1  0  0  0  0  0  0  0  0
   -4.8802    5.7310    1.0988 H   0  0  0  1  0  0  0  0  0  0  0  0
   -0.3806    2.8487    1.6404 H   0  0  0  1  0  0  0  0  0  0  0  0
   -1.9592    2.2768    2.1255 H   0  0  0  1  0  0  0  0  0  0  0  0
  1  4  1  0  0  0  0
  2  4  1  0  0  0  0
  2  5  2  0  0  0  0
  2  6  1  0  0  0  0
  3  4  1  0  0  0  0
  3  7  1  0  0  0  0
  3  8  1  0  0  0  0
  4 26  1  0  0  0  0
  6  9  1  0  0  0  0
  6 12  1  0  0  0  0
  8 10  1  0  0  0  0
  8 11  2  0  0  0  0
  9 13  1  0  0  0  0
  9 14  1  0  0  0  0
  9 15  1  0  0  0  0
 10 16  1  0  0  0  0
 10 17  1  0  0  0  0
 10 18  1  0  0  0  0
 19 20  1  0  0  0  0
 20 21  4  0  0  0  0
 20 25  4  0  0  0  0
 21 22  4  0  0  0  0
 21 26  1  0  0  0  0
 22 23  4  0  0  0  0
 22 27  1  0  0  0  0
 23 24  4  0  0  0  0
 23 28  1  0  0  0  0
 24 25  4  0  0  0  0
 24 29  1  0  0  0  0
 25 30  1  0  0  0  0
 26 31  1  0  0  0  0
 26 32  1  0  0  0  0
M  END
> <BCLConfClusterSize>
1

> <ConfClashScore>
0 

> <ConfOneFourInteractionScore>
-0.94165 

> <ConfScore>
-0.306225 

> <ConfScorePBest>
0.00777687 

> <ConfTolerance>
0.217499 

> <RosettaParamsInstructions>
M  ROOT 3
M  POLY_N_BB 3
M  POLY_CA_BB 4
M  POLY_C_BB 2
M  POLY_O_BB 5
M  POLY_IGNORE 9 10 11 12 13 14 15 16 17 18 
M  POLY_UPPER 6
M  POLY_LOWER 8
M  POLY_CHG 0
M  POLY_PROPERTIES ALPHA_AA L_AA PROTEIN AROMATIC POLYMER 
M  END

$$$$



 32 32  0  0  0  0  0  0  0  0999 V2000
   -1.8418    2.8229    3.4107 H   0  0  0  1  0  0  0  0  0  0  0  0
   -0.6526    1.0948    3.0629 C   0  0  0  1  0  0  0  0  0  0  0  0
    0.1241    3.4217    3.1143 N   0  0  0  1  0  0  0  0  0  0  0  0
   -1.0035    2.5565    2.8016 C   0  0  0  1  0  0  0  0  0  0  0  0
   -1.4865    0.2980    3.4912 O   0  0  0  1  0  0  0  0  0  0  0  0
    0.6177    0.7893    2.7836 N   0  0  0  1  0  0  0  0  0  0  0  0
    0.5817    3.8581    2.3656 H   0  0  0  1  0  0  0  0  0  0  0  0
    0.5870    3.6684    4.3574 C   0  0  0  1  0  0  0  0  0  0  0  0
    1.1823   -0.5217    3.0670 C   0  0  0  1  0  0  0  0  0  0  0  0
    1.7908    4.5790    4.5021 C   0  0  0  1  0  0  0  0  0  0  0  0
    0.0501    3.1704    5.3459 O   0  0  0  1  0  0  0  0  0  0  0  0
    1.1892    1.4718    2.3737 H   0  0  0  1  0  0  0  0  0  0  0  0
    0.5168   -1.2813    2.7133 H   0  0  0  1  0  0  0  0  0  0  0  0
    1.3185   -0.6305    4.1227 H   0  0  0  1  0  0  0  0  0  0  0  0
    2.1268   -0.6173    2.5734 H   0  0  0  1  0  0  0  0  0  0  0  0
    1.5616    5.5415    4.0949 H   0  0  0  1  0  0  0  0  0  0  0  0
    2.6216    4.1579    3.9755 H   0  0  0  1  0  0  0  0  0  0  0  0
    2.0387    4.6801    5.5381 H   0  0  0  1  0  0  0  0  0  0  0  0
   -4.1397    3.3020    1.6037 F   0  0  0  1  0  0  0  0  0  0  0  0
   -3.3318    4.3115    1.2268 C   0  0  0  1  0  0  0  0  0  0  0  0
   -1.9715    4.0913    1.0765 C   0  0  0  1  0  0  0  0  0  0  0  0
   -1.1417    5.1287    0.6949 C   0  0  0  1  0  0  0  0  0  0  0  0
   -1.6705    6.3878    0.4572 C   0  0  0  1  0  0  0  0  0  0  0  0
   -3.0268    6.6072    0.6071 C   0  0  0  1  0  0  0  0  0  0  0  0
   -3.8591    5.5669    0.9899 C   0  0  0  1  0  0  0  0  0  0  0  0
   -1.3961    2.7179    1.3298 C   0  0  0  1  0  0  0  0  0  0  0  0
   -0.1205    4.9646    0.5860 H   0  0  0  1  0  0  0  0  0  0  0  0
   -1.0466    7.1674    0.1662 H   0  0  0  1  0  0  0  0  0  0  0  0
   -3.4229    7.5528    0.4327 H   0  0  0  1  0  0  0  0  0  0  0  0
   -4.8803    5.7311    1.0987 H   0  0  0  1  0  0  0  0  0  0  0  0
   -2.1283    1.9791    1.0789 H   0  0  0  1  0  0  0  0  0  0  0  0
   -0.5284    2.5829    0.7184 H   0  0  0  1  0  0  0  0  0  0  0  0
  1  4  1  0  0  0  0
  2  4  1  0  0  0  0
  2  5  2  0  0  0  0
  2  6  1  0  0  0  0
  3  4  1  0  0  0  0
  3  7  1  0  0  0  0
  3  8  1  0  0  0  0
  4 26  1  0  0  0  0
  6  9  1  0  0  0  0
  6 12  1  0  0  0  0
  8 10  1  0  0  0  0
  8 11  2  0  0  0  0
  9 13  1  0  0  0  0
  9 14  1  0  0  0  0
  9 15  1  0  0  0  0
 10 16  1  0  0  0  0
 10 17  1  0  0  0  0
 10 18  1  0  0  0  0
 19 20  1  0  0  0  0
 20 21  4  0  0  0  0
 20 25  4  0  0  0  0
 21 22  4  0  0  0  0
 21 26  1  0  0  0  0
 22 23  4  0  0  0  0
 22 27  1  0  0  0  0
 23 24  4  0  0  0  0
 23 28  1  0  0  0  0
 24 25  4  0  0  0  0
 24 29  1  0  0  0  0
 25 30  1  0  0  0  0
 26 31  1  0  0  0  0
 26 32  1  0  0  0  0
M  END
> <BCLConfClusterSize>
1

> <ConfClashScore>
0 

> <ConfOneFourInteractionScore>
-0.960318 

> <ConfScore>
-0.295621 

> <ConfScorePBest>
0.00774839 

> <ConfTolerance>
0.156783 

> <RosettaParamsInstructions>
M  ROOT 3
M  POLY_N_BB 3
M  POLY_CA_BB 4
M  POLY_C_BB 2
M  POLY_O_BB 5
M  POLY_IGNORE 9 10 11 12 13 14 15 16 17 18 
M  POLY_UPPER 6
M  POLY_LOWER 8
M  POLY_CHG 0
M  POLY_PROPERTIES ALPHA_AA L_AA PROTEIN AROMATIC POLYMER 
M  END

$$$$



 32 32  0  0  0  0  0  0  0  0999 V2000
   -1.9942    2.8336    3.3564 H   0  0  0  1  0  0  0  0  0  0  0  0
   -0.8859    1.0649    3.1510 C   0  0  0  1  0  0  0  0  0  0  0  0
   -0.0125    3.3726    3.2418 N   0  0  0  1  0  0  0  0  0  0  0  0
   -1.1184    2.5230    2.8259 C   0  0  0  1  0  0  0  0  0  0  0  0
   -1.8285    0.2785    3.2327 O   0  0  0  1  0  0  0  0  0  0  0  0
    0.3715    0.6577    3.3461 N   0  0  0  1  0  0  0  0  0  0  0  0
    0.4941    3.8970    2.5870 H   0  0  0  1  0  0  0  0  0  0  0  0
    0.2926    3.4174    4.5418 C   0  0  0  1  0  0  0  0  0  0  0  0
    0.6942   -0.7023    3.7516 C   0  0  0  1  0  0  0  0  0  0  0  0
    1.4417    4.3325    4.9176 C   0  0  0  1  0  0  0  0  0  0  0  0
   -0.3080    2.7661    5.3924 O   0  0  0  1  0  0  0  0  0  0  0  0
    1.1020    1.2970    3.2116 H   0  0  0  1  0  0  0  0  0  0  0  0
    0.2839   -1.3926    3.0445 H   0  0  0  1  0  0  0  0  0  0  0  0
    0.2789   -0.8938    4.7189 H   0  0  0  1  0  0  0  0  0  0  0  0
    1.7570   -0.8202    3.7894 H   0  0  0  1  0  0  0  0  0  0  0  0
    1.2300    5.3270    4.5844 H   0  0  0  1  0  0  0  0  0  0  0  0
    2.3408    3.9848    4.4533 H   0  0  0  1  0  0  0  0  0  0  0  0
    1.5652    4.3315    5.9805 H   0  0  0  1  0  0  0  0  0  0  0  0
   -4.1392    3.2983    1.5955 F   0  0  0  1  0  0  0  0  0  0  0  0
   -3.3303    4.3095    1.2252 C   0  0  0  1  0  0  0  0  0  0  0  0
   -1.9735    4.0910    1.0783 C   0  0  0  1  0  0  0  0  0  0  0  0
   -1.1417    5.1304    0.6920 C   0  0  0  1  0  0  0  0  0  0  0  0
   -1.6684    6.3867    0.4589 C   0  0  0  1  0  0  0  0  0  0  0  0
   -3.0292    6.6061    0.6062 C   0  0  0  1  0  0  0  0  0  0  0  0
   -3.8585    5.5697    0.9914 C   0  0  0  1  0  0  0  0  0  0  0  0
   -1.3970    2.7194    1.3387 C   0  0  0  1  0  0  0  0  0  0  0  0
   -0.1213    4.9649    0.5776 H   0  0  0  1  0  0  0  0  0  0  0  0
   -1.0438    7.1675    0.1730 H   0  0  0  1  0  0  0  0  0  0  0  0
   -3.4261    7.5506    0.4269 H   0  0  0  1  0  0  0  0  0  0  0  0
   -4.8788    5.7352    1.1058 H   0  0  0  1  0  0  0  0  0  0  0  0
   -2.0952    1.9775    1.0116 H   0  0  0  1  0  0  0  0  0  0  0  0
   -0.4823    2.6140    0.7936 H   0  0  0  1  0  0  0  0  0  0  0  0
  1  4  1  0  0  0  0
  2  4  1  0  0  0  0
  2  5  2  0  0  0  0
  2  6  1  0  0  0  0
  3  4  1  0  0  0  0
  3  7  1  0  0  0  0
  3  8  1  0  0  0  0
  4 26  1  0  0  0  0
  6  9  1  0  0  0  0
  6 12  1  0  0  0  0
  8 10  1  0  0  0  0
  8 11  2  0  0  0  0
  9 13  1  0  0  0  0
  9 14  1  0  0  0  0
  9 15  1  0  0  0  0
 10 16  1  0  0  0  0
 10 17  1  0  0  0  0
 10 18  1  0  0  0  0
 19 20  1  0  0  0  0
 20 21  4  0  0  0  0
 20 25  4  0  0  0  0
 21 22  4  0  0  0  0
 21 26  1  0  0  0  0
 22 23  4  0  0  0  0
 22 27  1  0  0  0  0
 23 24  4  0  0  0  0
 23 28  1  0  0  0  0
 24 25  4  0  0  0  0
 24 29  1  0  0  0  0
 25 30  1  0  0  0  0
 26 31  1  0  0  0  0
 26 32  1  0  0  0  0
M  END
> <BCLConfClusterSize>
1

> <ConfClashScore>
0 

> <ConfOneFourInteractionScore>
-0.960318 

> <ConfScore>
-0.295621 

> <ConfScorePBest>
0.00771991 

> <ConfTolerance>
0.192973 

> <RosettaParamsInstructions>
M  ROOT 3
M  POLY_N_BB 3
M  POLY_CA_BB 4
M  POLY_C_BB 2
M  POLY_O_BB 5
M  POLY_IGNORE 9 10 11 12 13 14 15 16 17 18 
M  POLY_UPPER 6
M  POLY_LOWER 8
M  POLY_CHG 0
M  POLY_PROPERTIES ALPHA_AA L_AA PROTEIN AROMATIC POLYMER 
M  END

$$$$



 32 32  0  0  0  0  0  0  0  0999 V2000
   -0.9652    2.1808   -0.6672 H   0  0  0  1  0  0  0  0  0  0  0  0
   -0.8072    0.4269    0.5100 C   0  0  0  1  0  0  0  0  0  0  0  0
   -2.8712    1.5170   -0.2161 N   0  0  0  1  0  0  0  0  0  0  0  0
   -1.4851    1.7488    0.1622 C   0  0  0  1  0  0  0  0  0  0  0  0
    0.4044    0.2870    0.4810 O   0  0  0  1  0  0  0  0  0  0  0  0
   -1.5616   -0.6165    0.8587 N   0  0  0  1  0  0  0  0  0  0  0  0
   -3.5678    2.0917    0.1646 H   0  0  0  1  0  0  0  0  0  0  0  0
   -3.2270    0.5481   -1.0643 C   0  0  0  1  0  0  0  0  0  0  0  0
   -1.0488   -1.9135    1.2742 C   0  0  0  1  0  0  0  0  0  0  0  0
   -4.7318    0.3841   -1.2652 C   0  0  0  1  0  0  0  0  0  0  0  0
   -2.4292   -0.2192   -1.5995 O   0  0  0  1  0  0  0  0  0  0  0  0
   -2.5344   -0.5009    0.8333 H   0  0  0  1  0  0  0  0  0  0  0  0
   -0.0697   -2.0575    0.8673 H   0  0  0  1  0  0  0  0  0  0  0  0
   -1.6996   -2.6847    0.9183 H   0  0  0  1  0  0  0  0  0  0  0  0
   -1.0000   -1.9520    2.3424 H   0  0  0  1  0  0  0  0  0  0  0  0
   -5.2026    1.3445   -1.2368 H   0  0  0  1  0  0  0  0  0  0  0  0
   -5.1304   -0.2314   -0.4860 H   0  0  0  1  0  0  0  0  0  0  0  0
   -4.9168   -0.0757   -2.2135 H   0  0  0  1  0  0  0  0  0  0  0  0
   -4.1397    3.3020    1.6037 F   0  0  0  1  0  0  0  0  0  0  0  0
   -3.3318    4.3115    1.2268 C   0  0  0  1  0  0  0  0  0  0  0  0
   -1.9715    4.0913    1.0765 C   0  0  0  1  0  0  0  0  0  0  0  0
   -1.1417    5.1287    0.6949 C   0  0  0  1  0  0  0  0  0  0  0  0
   -1.6705    6.3878    0.4572 C   0  0  0  1  0  0  0  0  0  0  0  0
   -3.0268    6.6072    0.6071 C   0  0  0  1  0  0  0  0  0  0  0  0
   -3.8591    5.5669    0.9899 C   0  0  0  1  0  0  0  0  0  0  0  0
   -1.3961    2.7179    1.3298 C   0  0  0  1  0  0  0  0  0  0  0  0
   -0.1205    4.9646    0.5860 H   0  0  0  1  0  0  0  0  0  0  0  0
   -1.0466    7.1674    0.1662 H   0  0  0  1  0  0  0  0  0  0  0  0
   -3.4229    7.5528    0.4327 H   0  0  0  1  0  0  0  0  0  0  0  0
   -4.8803    5.7311    1.0987 H   0  0  0  1  0  0  0  0  0  0  0  0
   -0.3633    2.8345    1.5839 H   0  0  0  1  0  0  0  0  0  0  0  0
   -1.9211    2.2875    2.1568 H   0  0  0  1  0  0  0  0  0  0  0  0
  1  4  1  0  0  0  0
  2  4  1  0  0  0  0
  2  5  2  0  0  0  0
  2  6  1  0  0  0  0
  3  4  1  0  0  0  0
  3  7  1  0  0  0  0
  3  8  1  0  0  0  0
  4 26  1  0  0  0  0
  6  9  1  0  0  0  0
  6 12  1  0  0  0  0
  8 10  1  0  0  0  0
  8 11  2  0  0  0  0
  9 13  1  0  0  0  0
  9 14  1  0  0  0  0
  9 15  1  0  0  0  0
 10 16  1  0  0  0  0
 10 17  1  0  0  0  0
 10 18  1  0  0  0  0
 19 20  1  0  0  0  0
 20 21  4  0  0  0  0
 20 25  4  0  0  0  0
 21 22  4  0  0  0  0
 21 26  1  0  0  0  0
 22 23  4  0  0  0  0
 22 27  1  0  0  0  0
 23 24  4  0  0  0  0
 23 28  1  0  0  0  0
 24 25  4  0  0  0  0
 24 29  1  0  0  0  0
 25 30  1  0  0  0  0
 26 31  1  0  0  0  0
 26 32  1  0  0  0  0
M  END
> <BCLConfClusterSize>
1

> <ConfClashScore>
0 

> <ConfOneFourInteractionScore>
-0.960318 

> <ConfScore>
-0.288315 

> <ConfScorePBest>
0.00769143 

> <ConfTolerance>
0.232224 

> <RosettaParamsInstructions>
M  ROOT 3
M  POLY_N_BB 3
M  POLY_CA_BB 4
M  POLY_C_BB 2
M  POLY_O_BB 5
M  POLY_IGNORE 9 10 11 12 13 14 15 16 17 18 
M  POLY_UPPER 6
M  POLY_LOWER 8
M  POLY_CHG 0
M  POLY_PROPERTIES ALPHA_AA L_AA PROTEIN AROMATIC POLYMER 
M  END

$$$$



 32 32  0  0  0  0  0  0  0  0999 V2000
   -0.3638    2.4380   -0.4946 H   0  0  0  1  0  0  0  0  0  0  0  0
   -0.6308    0.5237    0.3566 C   0  0  0  1  0  0  0  0  0  0  0  0
   -2.3069    1.8316   -0.8163 N   0  0  0  1  0  0  0  0  0  0  0  0
   -1.1367    1.9299    0.0433 C   0  0  0  1  0  0  0  0  0  0  0  0
    0.5291    0.3338    0.7205 O   0  0  0  1  0  0  0  0  0  0  0  0
   -1.5078   -0.4578    0.1274 N   0  0  0  1  0  0  0  0  0  0  0  0
   -3.1785    2.1057   -0.4618 H   0  0  0  1  0  0  0  0  0  0  0  0
   -2.2337    1.3763   -2.0842 C   0  0  0  1  0  0  0  0  0  0  0  0
   -1.1386   -1.8635    0.2023 C   0  0  0  1  0  0  0  0  0  0  0  0
   -3.4905    1.4210   -2.9314 C   0  0  0  1  0  0  0  0  0  0  0  0
   -1.1812    0.9382   -2.5412 O   0  0  0  1  0  0  0  0  0  0  0  0
   -2.4319   -0.2230   -0.0990 H   0  0  0  1  0  0  0  0  0  0  0  0
   -0.3649   -2.0679   -0.5080 H   0  0  0  1  0  0  0  0  0  0  0  0
   -1.9932   -2.4687   -0.0174 H   0  0  0  1  0  0  0  0  0  0  0  0
   -0.7861   -2.0874    1.1875 H   0  0  0  1  0  0  0  0  0  0  0  0
   -3.8976    2.4103   -2.9145 H   0  0  0  1  0  0  0  0  0  0  0  0
   -4.2096    0.7329   -2.5387 H   0  0  0  1  0  0  0  0  0  0  0  0
   -3.2510    1.1512   -3.9387 H   0  0  0  1  0  0  0  0  0  0  0  0
   -4.1397    3.3020    1.6037 F   0  0  0  1  0  0  0  0  0  0  0  0
   -3.3318    4.3115    1.2268 C   0  0  0  1  0  0  0  0  0  0  0  0
   -1.9715    4.0914    1.0765 C   0  0  0  1  0  0  0  0  0  0  0  0
   -1.1417    5.1287    0.6949 C   0  0  0  1  0  0  0  0  0  0  0  0
   -1.6704    6.3879    0.4572 C   0  0  0  1  0  0  0  0  0  0  0  0
   -3.0268    6.6072    0.6071 C   0  0  0  1  0  0  0  0  0  0  0  0
   -3.8592    5.5669    0.9899 C   0  0  0  1  0  0  0  0  0  0  0  0
   -1.3961    2.7179    1.3298 C   0  0  0  1  0  0  0  0  0  0  0  0
   -0.1206    4.9645    0.5860 H   0  0  0  1  0  0  0  0  0  0  0  0
   -1.0466    7.1674    0.1662 H   0  0  0  1  0  0  0  0  0  0  0  0
   -3.4229    7.5529    0.4327 H   0  0  0  1  0  0  0  0  0  0  0  0
   -4.8803    5.7311    1.0988 H   0  0  0  1  0  0  0  0  0  0  0  0
   -0.4700    2.8281    1.8543 H   0  0  0  1  0  0  0  0  0  0  0  0
   -2.0854    2.1661    1.9341 H   0  0  0  1  0  0  0  0  0  0  0  0
  1  4  1  0  0  0  0
  2  4  1  0  0  0  0
  2  5  2  0  0  0  0
  2  6  1  0  0  0  0
  3  4  1  0  0  0  0
  3  7  1  0  0  0  0
  3  8  1  0  0  0  0
  4 26  1  0  0  0  0
  6  9  1  0  0  0  0
  6 12  1  0  0  0  0
  8 10  1  0  0  0  0
  8 11  2  0  0  0  0
  9 13  1  0  0  0  0
  9 14  1  0  0  0  0
  9 15  1  0  0  0  0
 10 16  1  0  0  0  0
 10 17  1  0  0  0  0
 10 18  1  0  0  0  0
 19 20  1  0  0  0  0
 20 21  4  0  0  0  0
 20 25  4  0  0  0  0
 21 22  4  0  0  0  0
 21 26  1  0  0  0  0
 22 23  4  0  0  0  0
 22 27  1  0  0  0  0
 23 24  4  0  0  0  0
 23 28  1  0  0  0  0
 24 25  4  0  0  0  0
 24 29  1  0  0  0  0
 25 30  1  0  0  0  0
 26 31  1  0  0  0  0
 26 32  1  0  0  0  0
M  END
> <BCLConfClusterSize>
1

> <ConfClashScore>
0 

> <ConfOneFourInteractionScore>
-0.94165 

> <ConfScore>
-0.286159 

> <ConfScorePBest>
0.00766295 

> <ConfTolerance>
0.212523 

> <RosettaParamsInstructions>
M  ROOT 3
M  POLY_N_BB 3
M  POLY_CA_BB 4
M  POLY_C_BB 2
M  POLY_O_BB 5
M  POLY_IGNORE 9 10 11 12 13 14 15 16 17 18 
M  POLY_UPPER 6
M  POLY_LOWER 8
M  POLY_CHG 0
M  POLY_PROPERTIES ALPHA_AA L_AA PROTEIN AROMATIC POLYMER 
M  END

$$$$



 32 32  0  0  0  0  0  0  0  0999 V2000
   -1.9024    2.4214    3.3822 H   0  0  0  1  0  0  0  0  0  0  0  0
   -0.3535    1.0523    2.8553 C   0  0  0  1  0  0  0  0  0  0  0  0
   -0.1040    3.4672    3.2318 N   0  0  0  1  0  0  0  0  0  0  0  0
   -1.0178    2.4239    2.7803 C   0  0  0  1  0  0  0  0  0  0  0  0
   -1.0175    0.0298    3.0033 O   0  0  0  1  0  0  0  0  0  0  0  0
    0.9841    1.0460    2.7498 N   0  0  0  1  0  0  0  0  0  0  0  0
    0.0346    4.2532    2.6630 H   0  0  0  1  0  0  0  0  0  0  0  0
    0.5562    3.3881    4.4035 C   0  0  0  1  0  0  0  0  0  0  0  0
    1.7575   -0.1868    2.7423 C   0  0  0  1  0  0  0  0  0  0  0  0
    1.2660    4.6708    4.7910 C   0  0  0  1  0  0  0  0  0  0  0  0
    0.5997    2.3881    5.1152 O   0  0  0  1  0  0  0  0  0  0  0  0
    1.4567    1.9012    2.6751 H   0  0  0  1  0  0  0  0  0  0  0  0
    1.7512   -0.6183    3.7214 H   0  0  0  1  0  0  0  0  0  0  0  0
    2.7653    0.0265    2.4532 H   0  0  0  1  0  0  0  0  0  0  0  0
    1.3244   -0.8750    2.0467 H   0  0  0  1  0  0  0  0  0  0  0  0
    1.9031    4.9825    3.9898 H   0  0  0  1  0  0  0  0  0  0  0  0
    1.8541    4.5015    5.6687 H   0  0  0  1  0  0  0  0  0  0  0  0
    0.5418    5.4334    4.9878 H   0  0  0  1  0  0  0  0  0  0  0  0
   -4.1398    3.3019    1.6037 F   0  0  0  1  0  0  0  0  0  0  0  0
   -3.3319    4.3114    1.2268 C   0  0  0  1  0  0  0  0  0  0  0  0
   -1.9715    4.0914    1.0765 C   0  0  0  1  0  0  0  0  0  0  0  0
   -1.1416    5.1287    0.6948 C   0  0  0  1  0  0  0  0  0  0  0  0
   -1.6705    6.3878    0.4572 C   0  0  0  1  0  0  0  0  0  0  0  0
   -3.0268    6.6073    0.6071 C   0  0  0  1  0  0  0  0  0  0  0  0
   -3.8590    5.5669    0.9899 C   0  0  0  1  0  0  0  0  0  0  0  0
   -1.3961    2.7180    1.3297 C   0  0  0  1  0  0  0  0  0  0  0  0
   -0.1204    4.9646    0.5860 H   0  0  0  1  0  0  0  0  0  0  0  0
   -1.0467    7.1673    0.1662 H   0  0  0  1  0  0  0  0  0  0  0  0
   -3.4230    7.5529    0.4327 H   0  0  0  1  0  0  0  0  0  0  0  0
   -4.8802    5.7311    1.0987 H   0  0  0  1  0  0  0  0  0  0  0  0
   -2.1229    1.9943    1.0250 H   0  0  0  1  0  0  0  0  0  0  0  0
   -0.5154    2.6136    0.7312 H   0  0  0  1  0  0  0  0  0  0  0  0
  1  4  1  0  0  0  0
  2  4  1  0  0  0  0
  2  5  2  0  0  0  0
  2  6  1  0  0  0  0
  3  4  1  0  0  0  0
  3  7  1  0  0  0  0
  3  8  1  0  0  0  0
  4 26  1  0  0  0  0
  6  9  1  0  0  0  0
  6 12  1  0  0  0  0
  8 10  1  0  0  0  0
  8 11  2  0  0  0  0
  9 13  1  0  0  0  0
  9 14  1  0  0  0  0
  9 15  1  0  0  0  0
 10 16  1  0  0  0  0
 10 17  1  0  0  0  0
 10 18  1  0  0  0  0
 19 20  1  0  0  0  0
 20 21  4  0  0  0  0
 20 25  4  0  0  0  0
 21 22  4  0  0  0  0
 21 26  1  0  0  0  0
 22 23  4  0  0  0  0
 22 27  1  0  0  0  0
 23 24  4  0  0  0  0
 23 28  1  0  0  0  0
 24 25  4  0  0  0  0
 24 29  1  0  0  0  0
 25 30  1  0  0  0  0
 26 31  1  0  0  0  0
 26 32  1  0  0  0  0
M  END
> <BCLConfClusterSize>
1

> <ConfClashScore>
0 

> <ConfOneFourInteractionScore>
-0.960318 

> <ConfScore>
-0.286112 

> <ConfScorePBest>
0.00763447 

> <ConfTolerance>
0.221072 

> <RosettaParamsInstructions>
M  ROOT 3
M  POLY_N_BB 3
M  POLY_CA_BB 4
M  POLY_C_BB 2
M  POLY_O_BB 5
M  POLY_IGNORE 9 10 11 12 13 14 15 16 17 18 
M  POLY_UPPER 6
M  POLY_LOWER 8
M  POLY_CHG 0
M  POLY_PROPERTIES ALPHA_AA L_AA PROTEIN AROMATIC POLYMER 
M  END

$$$$



 32 32  0  0  0  0  0  0  0  0999 V2000
   -1.0146    2.4591   -0.7520 H   0  0  0  1  0  0  0  0  0  0  0  0
   -0.5438    0.6517    0.2495 C   0  0  0  1  0  0  0  0  0  0  0  0
   -2.7837    1.4858   -0.2694 N   0  0  0  1  0  0  0  0  0  0  0  0
   -1.4178    1.8744    0.0483 C   0  0  0  1  0  0  0  0  0  0  0  0
    0.5913    0.6047   -0.1951 O   0  0  0  1  0  0  0  0  0  0  0  0
   -1.0981   -0.3511    0.9366 N   0  0  0  1  0  0  0  0  0  0  0  0
   -3.4983    1.7093    0.3629 H   0  0  0  1  0  0  0  0  0  0  0  0
   -3.0970    0.8359   -1.3913 C   0  0  0  1  0  0  0  0  0  0  0  0
   -0.3128   -1.5301    1.2702 C   0  0  0  1  0  0  0  0  0  0  0  0
   -4.5904    0.6546   -1.6912 C   0  0  0  1  0  0  0  0  0  0  0  0
   -2.2576    0.4583   -2.2077 O   0  0  0  1  0  0  0  0  0  0  0  0
   -2.0354   -0.2927    1.2166 H   0  0  0  1  0  0  0  0  0  0  0  0
    0.1513   -1.9123    0.3851 H   0  0  0  1  0  0  0  0  0  0  0  0
   -0.9532   -2.2783    1.6884 H   0  0  0  1  0  0  0  0  0  0  0  0
    0.4410   -1.2664    1.9824 H   0  0  0  1  0  0  0  0  0  0  0  0
   -5.0354    0.0443   -0.9333 H   0  0  0  1  0  0  0  0  0  0  0  0
   -4.7078    0.1819   -2.6439 H   0  0  0  1  0  0  0  0  0  0  0  0
   -5.0697    1.6111   -1.7055 H   0  0  0  1  0  0  0  0  0  0  0  0
   -4.1397    3.3019    1.6037 F   0  0  0  1  0  0  0  0  0  0  0  0
   -3.3319    4.3114    1.2268 C   0  0  0  1  0  0  0  0  0  0  0  0
   -1.9715    4.0915    1.0765 C   0  0  0  1  0  0  0  0  0  0  0  0
   -1.1416    5.1287    0.6948 C   0  0  0  1  0  0  0  0  0  0  0  0
   -1.6705    6.3877    0.4572 C   0  0  0  1  0  0  0  0  0  0  0  0
   -3.0268    6.6073    0.6071 C   0  0  0  1  0  0  0  0  0  0  0  0
   -3.8591    5.5669    0.9899 C   0  0  0  1  0  0  0  0  0  0  0  0
   -1.3961    2.7181    1.3297 C   0  0  0  1  0  0  0  0  0  0  0  0
   -0.1204    4.9645    0.5860 H   0  0  0  1  0  0  0  0  0  0  0  0
   -1.0466    7.1673    0.1662 H   0  0  0  1  0  0  0  0  0  0  0  0
   -3.4230    7.5530    0.4327 H   0  0  0  1  0  0  0  0  0  0  0  0
   -4.8802    5.7310    1.0988 H   0  0  0  1  0  0  0  0  0  0  0  0
   -0.3856    2.8178    1.6671 H   0  0  0  1  0  0  0  0  0  0  0  0
   -1.9772    2.2276    2.0825 H   0  0  0  1  0  0  0  0  0  0  0  0
  1  4  1  0  0  0  0
  2  4  1  0  0  0  0
  2  5  2  0  0  0  0
  2  6  1  0  0  0  0
  3  4  1  0  0  0  0
  3  7  1  0  0  0  0
  3  8  1  0  0  0  0
  4 26  1  0  0  0  0
  6  9  1  0  0  0  0
  6 12  1  0  0  0  0
  8 10  1  0  0  0  0
  8 11  2  0  0  0  0
  9 13  1  0  0  0  0
  9 14  1  0  0  0  0
  9 15  1  0  0  0  0
 10 16  1  0  0  0  0
 10 17  1  0  0  0  0
 10 18  1  0  0  0  0
 19 20  1  0  0  0  0
 20 21  4  0  0  0  0
 20 25  4  0  0  0  0
 21 22  4  0  0  0  0
 21 26  1  0  0  0  0
 22 23  4  0  0  0  0
 22 27  1  0  0  0  0
 23 24  4  0  0  0  0
 23 28  1  0  0  0  0
 24 25  4  0  0  0  0
 24 29  1  0  0  0  0
 25 30  1  0  0  0  0
 26 31  1  0  0  0  0
 26 32  1  0  0  0  0
M  END
> <BCLConfClusterSize>
1

> <ConfClashScore>
0 

> <ConfOneFourInteractionScore>
-0.944706 

> <ConfScore>
-0.286112 

> <ConfScorePBest>
0.00760599 

> <ConfTolerance>
0.212058 

> <RosettaParamsInstructions>
M  ROOT 3
M  POLY_N_BB 3
M  POLY_CA_BB 4
M  POLY_C_BB 2
M  POLY_O_BB 5
M  POLY_IGNORE 9 10 11 12 13 14 15 16 17 18 
M  POLY_UPPER 6
M  POLY_LOWER 8
M  POLY_CHG 0
M  POLY_PROPERTIES ALPHA_AA L_AA PROTEIN AROMATIC POLYMER 
M  END

$$$$



 32 32  0  0  0  0  0  0  0  0999 V2000
   -1.9833    2.5914    3.3837 H   0  0  0  1  0  0  0  0  0  0  0  0
   -0.5821    1.0402    2.9521 C   0  0  0  1  0  0  0  0  0  0  0  0
   -0.0528    3.3804    3.2868 N   0  0  0  1  0  0  0  0  0  0  0  0
   -1.0886    2.4712    2.8094 C   0  0  0  1  0  0  0  0  0  0  0  0
    0.6259    0.8217    3.0186 O   0  0  0  1  0  0  0  0  0  0  0  0
   -1.5066    0.0848    3.0847 N   0  0  0  1  0  0  0  0  0  0  0  0
    0.7828    3.4232    2.7766 H   0  0  0  1  0  0  0  0  0  0  0  0
   -0.1579    4.1631    4.3723 C   0  0  0  1  0  0  0  0  0  0  0  0
   -1.1563   -1.3143    3.2790 C   0  0  0  1  0  0  0  0  0  0  0  0
    0.9955    5.0929    4.6951 C   0  0  0  1  0  0  0  0  0  0  0  0
   -1.1578    4.1290    5.0847 O   0  0  0  1  0  0  0  0  0  0  0  0
   -2.4535    0.3348    3.0499 H   0  0  0  1  0  0  0  0  0  0  0  0
   -0.3269   -1.5653    2.6513 H   0  0  0  1  0  0  0  0  0  0  0  0
   -1.9941   -1.9299    3.0258 H   0  0  0  1  0  0  0  0  0  0  0  0
   -0.8904   -1.4763    4.3027 H   0  0  0  1  0  0  0  0  0  0  0  0
    1.8400    4.5176    5.0126 H   0  0  0  1  0  0  0  0  0  0  0  0
    0.7055    5.7621    5.4781 H   0  0  0  1  0  0  0  0  0  0  0  0
    1.2550    5.6552    3.8226 H   0  0  0  1  0  0  0  0  0  0  0  0
   -4.1392    3.2984    1.5955 F   0  0  0  1  0  0  0  0  0  0  0  0
   -3.3303    4.3096    1.2252 C   0  0  0  1  0  0  0  0  0  0  0  0
   -1.9735    4.0909    1.0783 C   0  0  0  1  0  0  0  0  0  0  0  0
   -1.1416    5.1304    0.6920 C   0  0  0  1  0  0  0  0  0  0  0  0
   -1.6685    6.3867    0.4589 C   0  0  0  1  0  0  0  0  0  0  0  0
   -3.0292    6.6061    0.6062 C   0  0  0  1  0  0  0  0  0  0  0  0
   -3.8584    5.5697    0.9914 C   0  0  0  1  0  0  0  0  0  0  0  0
   -1.3970    2.7193    1.3387 C   0  0  0  1  0  0  0  0  0  0  0  0
   -0.1213    4.9649    0.5776 H   0  0  0  1  0  0  0  0  0  0  0  0
   -1.0439    7.1676    0.1730 H   0  0  0  1  0  0  0  0  0  0  0  0
   -3.4261    7.5505    0.4269 H   0  0  0  1  0  0  0  0  0  0  0  0
   -4.8787    5.7352    1.1058 H   0  0  0  1  0  0  0  0  0  0  0  0
   -2.1028    1.9853    1.0102 H   0  0  0  1  0  0  0  0  0  0  0  0
   -0.4906    2.6189    0.7790 H   0  0  0  1  0  0  0  0  0  0  0  0
  1  4  1  0  0  0  0
  2  4  1  0  0  0  0
  2  5  2  0  0  0  0
  2  6  1  0  0  0  0
  3  4  1  0  0  0  0
  3  7  1  0  0  0  0
  3  8  1  0  0  0  0
  4 26  1  0  0  0  0
  6  9  1  0  0  0  0
  6 12  1  0  0  0  0
  8 10  1  0  0  0  0
  8 11  2  0  0  0  0
  9 13  1  0  0  0  0
  9 14  1  0  0  0  0
  9 15  1  0  0  0  0
 10 16  1  0  0  0  0
 10 17  1  0  0  0  0
 10 18  1  0  0  0  0
 19 20  1  0  0  0  0
 20 21  4  0  0  0  0
 20 25  4  0  0  0  0
 21 22  4  0  0  0  0
 21 26  1  0  0  0  0
 22 23  4  0  0  0  0
 22 27  1  0  0  0  0
 23 24  4  0  0  0  0
 23 28  1  0  0  0  0
 24 25  4  0  0  0  0
 24 29  1  0  0  0  0
 25 30  1  0  0  0  0
 26 31  1  0  0  0  0
 26 32  1  0  0  0  0
M  END
> <BCLConfClusterSize>
1

> <ConfClashScore>
0 

> <ConfOneFourInteractionScore>
-0.985807 

> <ConfScore>
-0.285401 

> <ConfScorePBest>
0.00757751 

> <ConfTolerance>
0.188374 

> <RosettaParamsInstructions>
M  ROOT 3
M  POLY_N_BB 3
M  POLY_CA_BB 4
M  POLY_C_BB 2
M  POLY_O_BB 5
M  POLY_IGNORE 9 10 11 12 13 14 15 16 17 18 
M  POLY_UPPER 6
M  POLY_LOWER 8
M  POLY_CHG 0
M  POLY_PROPERTIES ALPHA_AA L_AA PROTEIN AROMATIC POLYMER 
M  END

$$$$



 32 32  0  0  0  0  0  0  0  0999 V2000
   -0.0804    2.7669   -0.3174 H   0  0  0  1  0  0  0  0  0  0  0  0
   -0.0555    0.8007    0.4565 C   0  0  0  1  0  0  0  0  0  0  0  0
   -1.8155    1.8062   -0.9007 N   0  0  0  1  0  0  0  0  0  0  0  0
   -0.7904    2.0808    0.0950 C   0  0  0  1  0  0  0  0  0  0  0  0
    1.1502    0.8022    0.6899 O   0  0  0  1  0  0  0  0  0  0  0  0
   -0.8026   -0.3035    0.5007 N   0  0  0  1  0  0  0  0  0  0  0  0
   -2.7509    2.0318   -0.7146 H   0  0  0  1  0  0  0  0  0  0  0  0
   -1.4843    1.2471   -2.0680 C   0  0  0  1  0  0  0  0  0  0  0  0
   -0.2361   -1.6146    0.7801 C   0  0  0  1  0  0  0  0  0  0  0  0
   -2.6170    1.0756   -3.0613 C   0  0  0  1  0  0  0  0  0  0  0  0
   -0.3389    0.8881   -2.3377 O   0  0  0  1  0  0  0  0  0  0  0  0
   -1.7663   -0.2293    0.3393 H   0  0  0  1  0  0  0  0  0  0  0  0
    0.7627   -1.6608    0.3991 H   0  0  0  1  0  0  0  0  0  0  0  0
   -0.8324   -2.3681    0.3095 H   0  0  0  1  0  0  0  0  0  0  0  0
   -0.2222   -1.7788    1.8374 H   0  0  0  1  0  0  0  0  0  0  0  0
   -2.9443    2.0366   -3.3993 H   0  0  0  1  0  0  0  0  0  0  0  0
   -3.4316    0.5676   -2.5887 H   0  0  0  1  0  0  0  0  0  0  0  0
   -2.2746    0.5015   -3.8968 H   0  0  0  1  0  0  0  0  0  0  0  0
   -4.1392    3.2983    1.5955 F   0  0  0  1  0  0  0  0  0  0  0  0
   -3.3303    4.3095    1.2252 C   0  0  0  1  0  0  0  0  0  0  0  0
   -1.9735    4.0910    1.0783 C   0  0  0  1  0  0  0  0  0  0  0  0
   -1.1417    5.1304    0.6920 C   0  0  0  1  0  0  0  0  0  0  0  0
   -1.6684    6.3867    0.4589 C   0  0  0  1  0  0  0  0  0  0  0  0
   -3.0292    6.6061    0.6062 C   0  0  0  1  0  0  0  0  0  0  0  0
   -3.8585    5.5697    0.9914 C   0  0  0  1  0  0  0  0  0  0  0  0
   -1.3970    2.7194    1.3387 C   0  0  0  1  0  0  0  0  0  0  0  0
   -0.1213    4.9649    0.5776 H   0  0  0  1  0  0  0  0  0  0  0  0
   -1.0438    7.1675    0.1730 H   0  0  0  1  0  0  0  0  0  0  0  0
   -3.4261    7.5506    0.4269 H   0  0  0  1  0  0  0  0  0  0  0  0
   -4.8788    5.7352    1.1058 H   0  0  0  1  0  0  0  0  0  0  0  0
   -0.6338    2.8065    2.0835 H   0  0  0  1  0  0  0  0  0  0  0  0
   -2.1786    2.0846    1.7007 H   0  0  0  1  0  0  0  0  0  0  0  0
  1  4  1  0  0  0  0
  2  4  1  0  0  0  0
  2  5  2  0  0  0  0
  2  6  1  0  0  0  0
  3  4  1  0  0  0  0
  3  7  1  0  0  0  0
  3  8  1  0  0  0  0
  4 26  1  0  0  0  0
  6  9  1  0  0  0  0
  6 12  1  0  0  0  0
  8 10  1  0  0  0  0
  8 11  2  0  0  0  0
  9 13  1  0  0  0  0
  9 14  1  0  0  0  0
  9 15  1  0  0  0  0
 10 16  1  0  0  0  0
 10 17  1  0  0  0  0
 10 18  1  0  0  0  0
 19 20  1  0  0  0  0
 20 21  4  0  0  0  0
 20 25  4  0  0  0  0
 21 22  4  0  0  0  0
 21 26  1  0  0  0  0
 22 23  4  0  0  0  0
 22 27  1  0  0  0  0
 23 24  4  0  0  0  0
 23 28  1  0  0  0  0
 24 25  4  0  0  0  0
 24 29  1  0  0  0  0
 25 30  1  0  0  0  0
 26 31  1  0  0  0  0
 26 32  1  0  0  0  0
M  END
> <BCLConfClusterSize>
1

> <ConfClashScore>
0 

> <ConfOneFourInteractionScore>
-0.960318 

> <ConfScore>
-0.283156 

> <ConfScorePBest>
0.00754903 

> <ConfTolerance>
0.244067 

> <RosettaParamsInstructions>
M  ROOT 3
M  POLY_N_BB 3
M  POLY_CA_BB 4
M  POLY_C_BB 2
M  POLY_O_BB 5
M  POLY_IGNORE 9 10 11 12 13 14 15 16 17 18 
M  POLY_UPPER 6
M  POLY_LOWER 8
M  POLY_CHG 0
M  POLY_PROPERTIES ALPHA_AA L_AA PROTEIN AROMATIC POLYMER 
M  END

$$$$



 32 32  0  0  0  0  0  0  0  0999 V2000
   -2.6674    2.1803    2.9528 H   0  0  0  1  0  0  0  0  0  0  0  0
   -0.9210    0.9466    2.9766 C   0  0  0  1  0  0  0  0  0  0  0  0
   -1.0516    3.2383    3.7344 N   0  0  0  1  0  0  0  0  0  0  0  0
   -1.6180    2.2974    2.7795 C   0  0  0  1  0  0  0  0  0  0  0  0
   -1.5411   -0.1097    2.8864 O   0  0  0  1  0  0  0  0  0  0  0  0
    0.3921    1.0023    3.2497 N   0  0  0  1  0  0  0  0  0  0  0  0
   -0.6399    4.0620    3.3993 H   0  0  0  1  0  0  0  0  0  0  0  0
   -1.0736    3.0159    5.0649 C   0  0  0  1  0  0  0  0  0  0  0  0
    1.1870   -0.1924    3.4923 C   0  0  0  1  0  0  0  0  0  0  0  0
   -0.3652    4.0091    5.9655 C   0  0  0  1  0  0  0  0  0  0  0  0
   -1.6497    2.0386    5.5354 O   0  0  0  1  0  0  0  0  0  0  0  0
    0.8307    1.8779    3.2871 H   0  0  0  1  0  0  0  0  0  0  0  0
    0.6187   -0.8874    4.0744 H   0  0  0  1  0  0  0  0  0  0  0  0
    2.0770    0.0735    4.0236 H   0  0  0  1  0  0  0  0  0  0  0  0
    1.4499   -0.6415    2.5574 H   0  0  0  1  0  0  0  0  0  0  0  0
   -0.6893    5.0008    5.7281 H   0  0  0  1  0  0  0  0  0  0  0  0
    0.6918    3.9344    5.8165 H   0  0  0  1  0  0  0  0  0  0  0  0
   -0.5980    3.7929    6.9872 H   0  0  0  1  0  0  0  0  0  0  0  0
   -4.1397    3.3020    1.6037 F   0  0  0  1  0  0  0  0  0  0  0  0
   -3.3318    4.3115    1.2268 C   0  0  0  1  0  0  0  0  0  0  0  0
   -1.9715    4.0914    1.0765 C   0  0  0  1  0  0  0  0  0  0  0  0
   -1.1417    5.1287    0.6949 C   0  0  0  1  0  0  0  0  0  0  0  0
   -1.6704    6.3879    0.4572 C   0  0  0  1  0  0  0  0  0  0  0  0
   -3.0268    6.6072    0.6071 C   0  0  0  1  0  0  0  0  0  0  0  0
   -3.8592    5.5669    0.9899 C   0  0  0  1  0  0  0  0  0  0  0  0
   -1.3961    2.7179    1.3298 C   0  0  0  1  0  0  0  0  0  0  0  0
   -0.1206    4.9645    0.5860 H   0  0  0  1  0  0  0  0  0  0  0  0
   -1.0466    7.1674    0.1662 H   0  0  0  1  0  0  0  0  0  0  0  0
   -3.4229    7.5529    0.4327 H   0  0  0  1  0  0  0  0  0  0  0  0
   -4.8803    5.7311    1.0988 H   0  0  0  1  0  0  0  0  0  0  0  0
   -1.8742    2.0125    0.6827 H   0  0  0  1  0  0  0  0  0  0  0  0
   -0.3458    2.7346    1.1262 H   0  0  0  1  0  0  0  0  0  0  0  0
  1  4  1  0  0  0  0
  2  4  1  0  0  0  0
  2  5  2  0  0  0  0
  2  6  1  0  0  0  0
  3  4  1  0  0  0  0
  3  7  1  0  0  0  0
  3  8  1  0  0  0  0
  4 26  1  0  0  0  0
  6  9  1  0  0  0  0
  6 12  1  0  0  0  0
  8 10  1  0  0  0  0
  8 11  2  0  0  0  0
  9 13  1  0  0  0  0
  9 14  1  0  0  0  0
  9 15  1  0  0  0  0
 10 16  1  0  0  0  0
 10 17  1  0  0  0  0
 10 18  1  0  0  0  0
 19 20  1  0  0  0  0
 20 21  4  0  0  0  0
 20 25  4  0  0  0  0
 21 22  4  0  0  0  0
 21 26  1  0  0  0  0
 22 23  4  0  0  0  0
 22 27  1  0  0  0  0
 23 24  4  0  0  0  0
 23 28  1  0  0  0  0
 24 25  4  0  0  0  0
 24 29  1  0  0  0  0
 25 30  1  0  0  0  0
 26 31  1  0  0  0  0
 26 32  1  0  0  0  0
M  END
> <BCLConfClusterSize>
1

> <ConfClashScore>
0 

> <ConfOneFourInteractionScore>
-0.94165 

> <ConfScore>
-0.283156 

> <ConfScorePBest>
0.00752055 

> <ConfTolerance>
0.19366 

> <RosettaParamsInstructions>
M  ROOT 3
M  POLY_N_BB 3
M  POLY_CA_BB 4
M  POLY_C_BB 2
M  POLY_O_BB 5
M  POLY_IGNORE 9 10 11 12 13 14 15 16 17 18 
M  POLY_UPPER 6
M  POLY_LOWER 8
M  POLY_CHG 0
M  POLY_PROPERTIES ALPHA_AA L_AA PROTEIN AROMATIC POLYMER 
M  END

$$$$



 32 32  0  0  0  0  0  0  0  0999 V2000
   -0.8785    2.4034   -0.7047 H   0  0  0  1  0  0  0  0  0  0  0  0
   -0.5314    0.5827    0.3240 C   0  0  0  1  0  0  0  0  0  0  0  0
   -2.7082    1.4856   -0.3594 N   0  0  0  1  0  0  0  0  0  0  0  0
   -1.3548    1.8441    0.0733 C   0  0  0  1  0  0  0  0  0  0  0  0
   -1.0555   -0.4377    0.7392 O   0  0  0  1  0  0  0  0  0  0  0  0
    0.7841    0.7181    0.1335 N   0  0  0  1  0  0  0  0  0  0  0  0
   -3.3364    1.1769    0.3265 H   0  0  0  1  0  0  0  0  0  0  0  0
   -3.1546    1.5485   -1.6311 C   0  0  0  1  0  0  0  0  0  0  0  0
    1.6898   -0.3619    0.4958 C   0  0  0  1  0  0  0  0  0  0  0  0
   -4.5253    0.9756   -1.9345 C   0  0  0  1  0  0  0  0  0  0  0  0
   -2.4728    2.0543   -2.5185 O   0  0  0  1  0  0  0  0  0  0  0  0
    1.1398    1.5463   -0.2511 H   0  0  0  1  0  0  0  0  0  0  0  0
    1.4773   -1.2225   -0.1034 H   0  0  0  1  0  0  0  0  0  0  0  0
    1.5581   -0.6058    1.5293 H   0  0  0  1  0  0  0  0  0  0  0  0
    2.6999   -0.0513    0.3280 H   0  0  0  1  0  0  0  0  0  0  0  0
   -4.5390   -0.0662   -1.6907 H   0  0  0  1  0  0  0  0  0  0  0  0
   -4.7417    1.1010   -2.9749 H   0  0  0  1  0  0  0  0  0  0  0  0
   -5.2625    1.4876   -1.3521 H   0  0  0  1  0  0  0  0  0  0  0  0
   -4.1398    3.3019    1.6037 F   0  0  0  1  0  0  0  0  0  0  0  0
   -3.3319    4.3114    1.2268 C   0  0  0  1  0  0  0  0  0  0  0  0
   -1.9715    4.0914    1.0765 C   0  0  0  1  0  0  0  0  0  0  0  0
   -1.1416    5.1287    0.6948 C   0  0  0  1  0  0  0  0  0  0  0  0
   -1.6705    6.3878    0.4572 C   0  0  0  1  0  0  0  0  0  0  0  0
   -3.0268    6.6073    0.6071 C   0  0  0  1  0  0  0  0  0  0  0  0
   -3.8590    5.5669    0.9899 C   0  0  0  1  0  0  0  0  0  0  0  0
   -1.3961    2.7180    1.3297 C   0  0  0  1  0  0  0  0  0  0  0  0
   -0.1204    4.9646    0.5860 H   0  0  0  1  0  0  0  0  0  0  0  0
   -1.0467    7.1673    0.1662 H   0  0  0  1  0  0  0  0  0  0  0  0
   -3.4230    7.5529    0.4327 H   0  0  0  1  0  0  0  0  0  0  0  0
   -4.8802    5.7311    1.0987 H   0  0  0  1  0  0  0  0  0  0  0  0
   -0.3984    2.8297    1.6999 H   0  0  0  1  0  0  0  0  0  0  0  0
   -1.9975    2.2273    2.0663 H   0  0  0  1  0  0  0  0  0  0  0  0
  1  4  1  0  0  0  0
  2  4  1  0  0  0  0
  2  5  2  0  0  0  0
  2  6  1  0  0  0  0
  3  4  1  0  0  0  0
  3  7  1  0  0  0  0
  3  8  1  0  0  0  0
  4 26  1  0  0  0  0
  6  9  1  0  0  0  0
  6 12  1  0  0  0  0
  8 10  1  0  0  0  0
  8 11  2  0  0  0  0
  9 13  1  0  0  0  0
  9 14  1  0  0  0  0
  9 15  1  0  0  0  0
 10 16  1  0  0  0  0
 10 17  1  0  0  0  0
 10 18  1  0  0  0  0
 19 20  1  0  0  0  0
 20 21  4  0  0  0  0
 20 25  4  0  0  0  0
 21 22  4  0  0  0  0
 21 26  1  0  0  0  0
 22 23  4  0  0  0  0
 22 27  1  0  0  0  0
 23 24  4  0  0  0  0
 23 28  1  0  0  0  0
 24 25  4  0  0  0  0
 24 29  1  0  0  0  0
 25 30  1  0  0  0  0
 26 31  1  0  0  0  0
 26 32  1  0  0  0  0
M  END
> <BCLConfClusterSize>
1

> <ConfClashScore>
0 

> <ConfOneFourInteractionScore>
-0.985807 

> <ConfScore>
-0.282789 

> <ConfScorePBest>
0.00749207 

> <ConfTolerance>
0.182645 

> <RosettaParamsInstructions>
M  ROOT 3
M  POLY_N_BB 3
M  POLY_CA_BB 4
M  POLY_C_BB 2
M  POLY_O_BB 5
M  POLY_IGNORE 9 10 11 12 13 14 15 16 17 18 
M  POLY_UPPER 6
M  POLY_LOWER 8
M  POLY_CHG 0
M  POLY_PROPERTIES ALPHA_AA L_AA PROTEIN AROMATIC POLYMER 
M  END

$$$$



 32 32  0  0  0  0  0  0  0  0999 V2000
   -1.8108    2.5205    3.4164 H   0  0  0  1  0  0  0  0  0  0  0  0
   -0.3767    1.0593    2.8368 C   0  0  0  1  0  0  0  0  0  0  0  0
    0.0623    3.4063    3.1857 N   0  0  0  1  0  0  0  0  0  0  0  0
   -0.9600    2.4573    2.7707 C   0  0  0  1  0  0  0  0  0  0  0  0
   -1.0115    0.1251    3.3246 O   0  0  0  1  0  0  0  0  0  0  0  0
    0.8540    0.9195    2.3359 N   0  0  0  1  0  0  0  0  0  0  0  0
    0.3745    4.0554    2.5212 H   0  0  0  1  0  0  0  0  0  0  0  0
    0.6073    3.4593    4.4044 C   0  0  0  1  0  0  0  0  0  0  0  0
    1.6048   -0.3216    2.4533 C   0  0  0  1  0  0  0  0  0  0  0  0
    1.6906    4.5027    4.5968 C   0  0  0  1  0  0  0  0  0  0  0  0
    0.2657    2.7184    5.3225 O   0  0  0  1  0  0  0  0  0  0  0  0
    1.2653    1.6792    1.8732 H   0  0  0  1  0  0  0  0  0  0  0  0
    1.0780   -1.1065    1.9521 H   0  0  0  1  0  0  0  0  0  0  0  0
    1.7190   -0.5725    3.4872 H   0  0  0  1  0  0  0  0  0  0  0  0
    2.5694   -0.1982    2.0070 H   0  0  0  1  0  0  0  0  0  0  0  0
    2.2567    4.6004    3.6941 H   0  0  0  1  0  0  0  0  0  0  0  0
    2.3386    4.2010    5.3930 H   0  0  0  1  0  0  0  0  0  0  0  0
    1.2408    5.4429    4.8390 H   0  0  0  1  0  0  0  0  0  0  0  0
   -4.1390    3.2984    1.5955 F   0  0  0  1  0  0  0  0  0  0  0  0
   -3.3302    4.3097    1.2252 C   0  0  0  1  0  0  0  0  0  0  0  0
   -1.9734    4.0909    1.0783 C   0  0  0  1  0  0  0  0  0  0  0  0
   -1.1418    5.1304    0.6920 C   0  0  0  1  0  0  0  0  0  0  0  0
   -1.6684    6.3868    0.4589 C   0  0  0  1  0  0  0  0  0  0  0  0
   -3.0292    6.6061    0.6062 C   0  0  0  1  0  0  0  0  0  0  0  0
   -3.8585    5.5697    0.9914 C   0  0  0  1  0  0  0  0  0  0  0  0
   -1.3970    2.7192    1.3387 C   0  0  0  1  0  0  0  0  0  0  0  0
   -0.1214    4.9648    0.5776 H   0  0  0  1  0  0  0  0  0  0  0  0
   -1.0437    7.1676    0.1729 H   0  0  0  1  0  0  0  0  0  0  0  0
   -3.4261    7.5505    0.4269 H   0  0  0  1  0  0  0  0  0  0  0  0
   -4.8789    5.7352    1.1058 H   0  0  0  1  0  0  0  0  0  0  0  0
   -2.1414    1.9944    1.0830 H   0  0  0  1  0  0  0  0  0  0  0  0
   -0.5439    2.5940    0.7051 H   0  0  0  1  0  0  0  0  0  0  0  0
  1  4  1  0  0  0  0
  2  4  1  0  0  0  0
  2  5  2  0  0  0  0
  2  6  1  0  0  0  0
  3  4  1  0  0  0  0
  3  7  1  0  0  0  0
  3  8  1  0  0  0  0
  4 26  1  0  0  0  0
  6  9  1  0  0  0  0
  6 12  1  0  0  0  0
  8 10  1  0  0  0  0
  8 11  2  0  0  0  0
  9 13  1  0  0  0  0
  9 14  1  0  0  0  0
  9 15  1  0  0  0  0
 10 16  1  0  0  0  0
 10 17  1  0  0  0  0
 10 18  1  0  0  0  0
 19 20  1  0  0  0  0
 20 21  4  0  0  0  0
 20 25  4  0  0  0  0
 21 22  4  0  0  0  0
 21 26  1  0  0  0  0
 22 23  4  0  0  0  0
 22 27  1  0  0  0  0
 23 24  4  0  0  0  0
 23 28  1  0  0  0  0
 24 25  4  0  0  0  0
 24 29  1  0  0  0  0
 25 30  1  0  0  0  0
 26 31  1  0  0  0  0
 26 32  1  0  0  0  0
M  END
> <BCLConfClusterSize>
1

> <ConfClashScore>
0 

> <ConfOneFourInteractionScore>
-0.960318 

> <ConfScore>
-0.277597 

> <ConfScorePBest>
0.00746359 

> <ConfTolerance>
0.277772 

> <RosettaParamsInstructions>
M  ROOT 3
M  POLY_N_BB 3
M  POLY_CA_BB 4
M  POLY_C_BB 2
M  POLY_O_BB 5
M  POLY_IGNORE 9 10 11 12 13 14 15 16 17 18 
M  POLY_UPPER 6
M  POLY_LOWER 8
M  POLY_CHG 0
M  POLY_PROPERTIES ALPHA_AA L_AA PROTEIN AROMATIC POLYMER 
M  END

$$$$



 32 32  0  0  0  0  0  0  0  0999 V2000
   -0.8238    2.3766   -0.6675 H   0  0  0  1  0  0  0  0  0  0  0  0
   -0.8197    0.5122    0.2934 C   0  0  0  1  0  0  0  0  0  0  0  0
   -2.7902    1.8030   -0.4555 N   0  0  0  1  0  0  0  0  0  0  0  0
   -1.4279    1.8766    0.0605 C   0  0  0  1  0  0  0  0  0  0  0  0
   -1.5248   -0.4500    0.5945 O   0  0  0  1  0  0  0  0  0  0  0  0
    0.5101    0.3832    0.1618 N   0  0  0  1  0  0  0  0  0  0  0  0
   -3.4702    1.3916    0.1178 H   0  0  0  1  0  0  0  0  0  0  0  0
   -3.1801    2.2535   -1.6489 C   0  0  0  1  0  0  0  0  0  0  0  0
    1.2313   -0.8805    0.1898 C   0  0  0  1  0  0  0  0  0  0  0  0
   -4.6522    2.0815   -1.9691 C   0  0  0  1  0  0  0  0  0  0  0  0
   -2.4095    2.7776   -2.4513 O   0  0  0  1  0  0  0  0  0  0  0  0
    1.0346    1.2016    0.0376 H   0  0  0  1  0  0  0  0  0  0  0  0
    0.6687   -1.6246   -0.3343 H   0  0  0  1  0  0  0  0  0  0  0  0
    1.3712   -1.1886    1.2049 H   0  0  0  1  0  0  0  0  0  0  0  0
    2.1844   -0.7573   -0.2807 H   0  0  0  1  0  0  0  0  0  0  0  0
   -5.2345    2.2917   -1.0964 H   0  0  0  1  0  0  0  0  0  0  0  0
   -4.8332    1.0752   -2.2845 H   0  0  0  1  0  0  0  0  0  0  0  0
   -4.9278    2.7563   -2.7525 H   0  0  0  1  0  0  0  0  0  0  0  0
   -4.1397    3.3020    1.6037 F   0  0  0  1  0  0  0  0  0  0  0  0
   -3.3318    4.3116    1.2268 C   0  0  0  1  0  0  0  0  0  0  0  0
   -1.9715    4.0913    1.0765 C   0  0  0  1  0  0  0  0  0  0  0  0
   -1.1417    5.1287    0.6949 C   0  0  0  1  0  0  0  0  0  0  0  0
   -1.6704    6.3879    0.4572 C   0  0  0  1  0  0  0  0  0  0  0  0
   -3.0268    6.6072    0.6071 C   0  0  0  1  0  0  0  0  0  0  0  0
   -3.8591    5.5669    0.9899 C   0  0  0  1  0  0  0  0  0  0  0  0
   -1.3962    2.7179    1.3298 C   0  0  0  1  0  0  0  0  0  0  0  0
   -0.1205    4.9645    0.5860 H   0  0  0  1  0  0  0  0  0  0  0  0
   -1.0466    7.1674    0.1661 H   0  0  0  1  0  0  0  0  0  0  0  0
   -3.4230    7.5528    0.4327 H   0  0  0  1  0  0  0  0  0  0  0  0
   -4.8803    5.7310    1.0988 H   0  0  0  1  0  0  0  0  0  0  0  0
   -0.3831    2.8173    1.6595 H   0  0  0  1  0  0  0  0  0  0  0  0
   -1.9725    2.2305    2.0882 H   0  0  0  1  0  0  0  0  0  0  0  0
  1  4  1  0  0  0  0
  2  4  1  0  0  0  0
  2  5  2  0  0  0  0
  2  6  1  0  0  0  0
  3  4  1  0  0  0  0
  3  7  1  0  0  0  0
  3  8  1  0  0  0  0
  4 26  1  0  0  0  0
  6  9  1  0  0  0  0
  6 12  1  0  0  0  0
  8 10  1  0  0  0  0
  8 11  2  0  0  0  0
  9 13  1  0  0  0  0
  9 14  1  0  0  0  0
  9 15  1  0  0  0  0
 10 16  1  0  0  0  0
 10 17  1  0  0  0  0
 10 18  1  0  0  0  0
 19 20  1  0  0  0  0
 20 21  4  0  0  0  0
 20 25  4  0  0  0  0
 21 22  4  0  0  0  0
 21 26  1  0  0  0  0
 22 23  4  0  0  0  0
 22 27  1  0  0  0  0
 23 24  4  0  0  0  0
 23 28  1  0  0  0  0
 24 25  4  0  0  0  0
 24 29  1  0  0  0  0
 25 30  1  0  0  0  0
 26 31  1  0  0  0  0
 26 32  1  0  0  0  0
M  END
> <BCLConfClusterSize>
1

> <ConfClashScore>
0 

> <ConfOneFourInteractionScore>
-0.985807 

> <ConfScore>
-0.269659 

> <ConfScorePBest>
0.0074351 

> <ConfTolerance>
0.213744 

> <RosettaParamsInstructions>
M  ROOT 3
M  POLY_N_BB 3
M  POLY_CA_BB 4
M  POLY_C_BB 2
M  POLY_O_BB 5
M  POLY_IGNORE 9 10 11 12 13 14 15 16 17 18 
M  POLY_UPPER 6
M  POLY_LOWER 8
M  POLY_CHG 0
M  POLY_PROPERTIES ALPHA_AA L_AA PROTEIN AROMATIC POLYMER 
M  END

$$$$



 32 32  0  0  0  0  0  0  0  0999 V2000
   -2.0659    2.5831    3.3181 H   0  0  0  1  0  0  0  0  0  0  0  0
   -0.7084    1.0100    3.0899 C   0  0  0  1  0  0  0  0  0  0  0  0
   -0.2060    3.4118    3.4176 N   0  0  0  1  0  0  0  0  0  0  0  0
   -1.1263    2.4541    2.8228 C   0  0  0  1  0  0  0  0  0  0  0  0
    0.4725    0.6680    3.0435 O   0  0  0  1  0  0  0  0  0  0  0  0
   -1.6993    0.1627    3.3720 N   0  0  0  1  0  0  0  0  0  0  0  0
    0.7479    3.3477    3.2021 H   0  0  0  1  0  0  0  0  0  0  0  0
   -0.6163    4.3755    4.2471 C   0  0  0  1  0  0  0  0  0  0  0  0
   -1.4580   -1.2350    3.6977 C   0  0  0  1  0  0  0  0  0  0  0  0
    0.4448    5.3686    4.6792 C   0  0  0  1  0  0  0  0  0  0  0  0
   -1.7747    4.4670    4.6448 O   0  0  0  1  0  0  0  0  0  0  0  0
   -2.6219    0.4930    3.3593 H   0  0  0  1  0  0  0  0  0  0  0  0
   -0.9602   -1.7117    2.8793 H   0  0  0  1  0  0  0  0  0  0  0  0
   -2.3916   -1.7245    3.8810 H   0  0  0  1  0  0  0  0  0  0  0  0
   -0.8448   -1.2963    4.5725 H   0  0  0  1  0  0  0  0  0  0  0  0
    1.1571    4.8787    5.3097 H   0  0  0  1  0  0  0  0  0  0  0  0
   -0.0156    6.1705    5.2176 H   0  0  0  1  0  0  0  0  0  0  0  0
    0.9419    5.7576    3.8151 H   0  0  0  1  0  0  0  0  0  0  0  0
   -4.1392    3.2984    1.5955 F   0  0  0  1  0  0  0  0  0  0  0  0
   -3.3303    4.3096    1.2252 C   0  0  0  1  0  0  0  0  0  0  0  0
   -1.9735    4.0909    1.0783 C   0  0  0  1  0  0  0  0  0  0  0  0
   -1.1416    5.1304    0.6920 C   0  0  0  1  0  0  0  0  0  0  0  0
   -1.6685    6.3867    0.4589 C   0  0  0  1  0  0  0  0  0  0  0  0
   -3.0292    6.6061    0.6062 C   0  0  0  1  0  0  0  0  0  0  0  0
   -3.8584    5.5697    0.9914 C   0  0  0  1  0  0  0  0  0  0  0  0
   -1.3970    2.7193    1.3387 C   0  0  0  1  0  0  0  0  0  0  0  0
   -0.1213    4.9649    0.5776 H   0  0  0  1  0  0  0  0  0  0  0  0
   -1.0439    7.1676    0.1730 H   0  0  0  1  0  0  0  0  0  0  0  0
   -3.4261    7.5505    0.4269 H   0  0  0  1  0  0  0  0  0  0  0  0
   -4.8787    5.7352    1.1058 H   0  0  0  1  0  0  0  0  0  0  0  0
   -2.0896    1.9856    0.9824 H   0  0  0  1  0  0  0  0  0  0  0  0
   -0.4751    2.6300    0.8030 H   0  0  0  1  0  0  0  0  0  0  0  0
  1  4  1  0  0  0  0
  2  4  1  0  0  0  0
  2  5  2  0  0  0  0
  2  6  1  0  0  0  0
  3  4  1  0  0  0  0
  3  7  1  0  0  0  0
  3  8  1  0  0  0  0
  4 26  1  0  0  0  0
  6  9  1  0  0  0  0
  6 12  1  0  0  0  0
  8 10  1  0  0  0  0
  8 11  2  0  0  0  0
  9 13  1  0  0  0  0
  9 14  1  0  0  0  0
  9 15  1  0  0  0  0
 10 16  1  0  0  0  0
 10 17  1  0  0  0  0
 10 18  1  0  0  0  0
 19 20  1  0  0  0  0
 20 21  4  0  0  0  0
 20 25  4  0  0  0  0
 21 22  4  0  0  0  0
 21 26  1  0  0  0  0
 22 23  4  0  0  0  0
 22 27  1  0  0  0  0
 23 24  4  0  0  0  0
 23 28  1  0  0  0  0
 24 25  4  0  0  0  0
 24 29  1  0  0  0  0
 25 30  1  0  0  0  0
 26 31  1  0  0  0  0
 26 32  1  0  0  0  0
M  END
> <BCLConfClusterSize>
1

> <ConfClashScore>
0 

> <ConfOneFourInteractionScore>
-0.990503 

> <ConfScore>
-0.266543 

> <ConfScorePBest>
0.00740662 

> <ConfTolerance>
0.210183 

> <RosettaParamsInstructions>
M  ROOT 3
M  POLY_N_BB 3
M  POLY_CA_BB 4
M  POLY_C_BB 2
M  POLY_O_BB 5
M  POLY_IGNORE 9 10 11 12 13 14 15 16 17 18 
M  POLY_UPPER 6
M  POLY_LOWER 8
M  POLY_CHG 0
M  POLY_PROPERTIES ALPHA_AA L_AA PROTEIN AROMATIC POLYMER 
M  END

$$$$



 32 32  0  0  0  0  0  0  0  0999 V2000
   -2.8725    2.0484    2.7047 H   0  0  0  1  0  0  0  0  0  0  0  0
   -1.2106    0.7591    2.8542 C   0  0  0  1  0  0  0  0  0  0  0  0
   -1.4131    3.0660    3.7533 N   0  0  0  1  0  0  0  0  0  0  0  0
   -1.8068    2.1445    2.6980 C   0  0  0  1  0  0  0  0  0  0  0  0
   -1.8099   -0.2417    2.4632 O   0  0  0  1  0  0  0  0  0  0  0  0
   -0.0094    0.7065    3.4367 N   0  0  0  1  0  0  0  0  0  0  0  0
   -0.8324    3.8090    3.4868 H   0  0  0  1  0  0  0  0  0  0  0  0
   -1.7537    3.0139    5.0459 C   0  0  0  1  0  0  0  0  0  0  0  0
    0.6864   -0.5499    3.6714 C   0  0  0  1  0  0  0  0  0  0  0  0
   -1.1718    4.1039    5.9249 C   0  0  0  1  0  0  0  0  0  0  0  0
   -2.4906    2.1449    5.5100 O   0  0  0  1  0  0  0  0  0  0  0  0
    0.4181    1.5431    3.7156 H   0  0  0  1  0  0  0  0  0  0  0  0
    0.5022   -1.2180    2.8562 H   0  0  0  1  0  0  0  0  0  0  0  0
    0.3312   -0.9898    4.5799 H   0  0  0  1  0  0  0  0  0  0  0  0
    1.7375   -0.3659    3.7509 H   0  0  0  1  0  0  0  0  0  0  0  0
   -1.0697    5.0046    5.3564 H   0  0  0  1  0  0  0  0  0  0  0  0
   -0.2112    3.7978    6.2834 H   0  0  0  1  0  0  0  0  0  0  0  0
   -1.8239    4.2784    6.7551 H   0  0  0  1  0  0  0  0  0  0  0  0
   -4.1391    3.2983    1.5955 F   0  0  0  1  0  0  0  0  0  0  0  0
   -3.3303    4.3096    1.2252 C   0  0  0  1  0  0  0  0  0  0  0  0
   -1.9735    4.0910    1.0783 C   0  0  0  1  0  0  0  0  0  0  0  0
   -1.1416    5.1304    0.6920 C   0  0  0  1  0  0  0  0  0  0  0  0
   -1.6684    6.3867    0.4589 C   0  0  0  1  0  0  0  0  0  0  0  0
   -3.0292    6.6062    0.6062 C   0  0  0  1  0  0  0  0  0  0  0  0
   -3.8584    5.5697    0.9914 C   0  0  0  1  0  0  0  0  0  0  0  0
   -1.3971    2.7194    1.3387 C   0  0  0  1  0  0  0  0  0  0  0  0
   -0.1213    4.9648    0.5776 H   0  0  0  1  0  0  0  0  0  0  0  0
   -1.0438    7.1676    0.1730 H   0  0  0  1  0  0  0  0  0  0  0  0
   -3.4261    7.5506    0.4269 H   0  0  0  1  0  0  0  0  0  0  0  0
   -4.8788    5.7352    1.1058 H   0  0  0  1  0  0  0  0  0  0  0  0
   -1.7375    2.0556    0.5716 H   0  0  0  1  0  0  0  0  0  0  0  0
   -0.3297    2.7865    1.3051 H   0  0  0  1  0  0  0  0  0  0  0  0
  1  4  1  0  0  0  0
  2  4  1  0  0  0  0
  2  5  2  0  0  0  0
  2  6  1  0  0  0  0
  3  4  1  0  0  0  0
  3  7  1  0  0  0  0
  3  8  1  0  0  0  0
  4 26  1  0  0  0  0
  6  9  1  0  0  0  0
  6 12  1  0  0  0  0
  8 10  1  0  0  0  0
  8 11  2  0  0  0  0
  9 13  1  0  0  0  0
  9 14  1  0  0  0  0
  9 15  1  0  0  0  0
 10 16  1  0  0  0  0
 10 17  1  0  0  0  0
 10 18  1  0  0  0  0
 19 20  1  0  0  0  0
 20 21  4  0  0  0  0
 20 25  4  0  0  0  0
 21 22  4  0  0  0  0
 21 26  1  0  0  0  0
 22 23  4  0  0  0  0
 22 27  1  0  0  0  0
 23 24  4  0  0  0  0
 23 28  1  0  0  0  0
 24 25  4  0  0  0  0
 24 29  1  0  0  0  0
 25 30  1  0  0  0  0
 26 31  1  0  0  0  0
 26 32  1  0  0  0  0
M  END
> <BCLConfClusterSize>
1

> <ConfClashScore>
0 

> <ConfOneFourInteractionScore>
-0.960318 

> <ConfScore>
-0.266158 

> <ConfScorePBest>
0.00737814 

> <ConfTolerance>
0.219896 

> <RosettaParamsInstructions>
M  ROOT 3
M  POLY_N_BB 3
M  POLY_CA_BB 4
M  POLY_C_BB 2
M  POLY_O_BB 5
M  POLY_IGNORE 9 10 11 12 13 14 15 16 17 18 
M  POLY_UPPER 6
M  POLY_LOWER 8
M  POLY_CHG 0
M  POLY_PROPERTIES ALPHA_AA L_AA PROTEIN AROMATIC POLYMER 
M  END

$$$$



 32 32  0  0  0  0  0  0  0  0999 V2000
   -1.3358    2.7693    3.4318 H   0  0  0  1  0  0  0  0  0  0  0  0
   -0.2939    1.0473    2.8305 C   0  0  0  1  0  0  0  0  0  0  0  0
    0.4898    3.3898    2.7151 N   0  0  0  1  0  0  0  0  0  0  0  0
   -0.6638    2.5056    2.6420 C   0  0  0  1  0  0  0  0  0  0  0  0
    0.7628    0.5948    2.3919 O   0  0  0  1  0  0  0  0  0  0  0  0
   -1.1919    0.2968    3.5018 N   0  0  0  1  0  0  0  0  0  0  0  0
    1.2465    3.2308    2.1130 H   0  0  0  1  0  0  0  0  0  0  0  0
    0.5531    4.4108    3.5746 C   0  0  0  1  0  0  0  0  0  0  0  0
   -0.9371   -1.1177    3.7300 C   0  0  0  1  0  0  0  0  0  0  0  0
    1.8111    5.2544    3.5037 C   0  0  0  1  0  0  0  0  0  0  0  0
   -0.3420    4.6656    4.3792 O   0  0  0  1  0  0  0  0  0  0  0  0
   -2.0176    0.7051    3.8364 H   0  0  0  1  0  0  0  0  0  0  0  0
   -0.0895   -1.2286    4.3736 H   0  0  0  1  0  0  0  0  0  0  0  0
   -0.7404   -1.5998    2.7953 H   0  0  0  1  0  0  0  0  0  0  0  0
   -1.7940   -1.5647    4.1891 H   0  0  0  1  0  0  0  0  0  0  0  0
    2.6165    4.6632    3.1207 H   0  0  0  1  0  0  0  0  0  0  0  0
    2.0608    5.6050    4.4833 H   0  0  0  1  0  0  0  0  0  0  0  0
    1.6437    6.0903    2.8570 H   0  0  0  1  0  0  0  0  0  0  0  0
   -4.1391    3.2983    1.5955 F   0  0  0  1  0  0  0  0  0  0  0  0
   -3.3303    4.3096    1.2252 C   0  0  0  1  0  0  0  0  0  0  0  0
   -1.9735    4.0910    1.0783 C   0  0  0  1  0  0  0  0  0  0  0  0
   -1.1416    5.1304    0.6920 C   0  0  0  1  0  0  0  0  0  0  0  0
   -1.6684    6.3867    0.4589 C   0  0  0  1  0  0  0  0  0  0  0  0
   -3.0292    6.6062    0.6062 C   0  0  0  1  0  0  0  0  0  0  0  0
   -3.8584    5.5697    0.9914 C   0  0  0  1  0  0  0  0  0  0  0  0
   -1.3971    2.7194    1.3387 C   0  0  0  1  0  0  0  0  0  0  0  0
   -0.1213    4.9648    0.5776 H   0  0  0  1  0  0  0  0  0  0  0  0
   -1.0438    7.1676    0.1730 H   0  0  0  1  0  0  0  0  0  0  0  0
   -3.4261    7.5506    0.4269 H   0  0  0  1  0  0  0  0  0  0  0  0
   -4.8788    5.7352    1.1058 H   0  0  0  1  0  0  0  0  0  0  0  0
   -2.2070    2.0207    1.3087 H   0  0  0  1  0  0  0  0  0  0  0  0
   -0.7108    2.5048    0.5463 H   0  0  0  1  0  0  0  0  0  0  0  0
  1  4  1  0  0  0  0
  2  4  1  0  0  0  0
  2  5  2  0  0  0  0
  2  6  1  0  0  0  0
  3  4  1  0  0  0  0
  3  7  1  0  0  0  0
  3  8  1  0  0  0  0
  4 26  1  0  0  0  0
  6  9  1  0  0  0  0
  6 12  1  0  0  0  0
  8 10  1  0  0  0  0
  8 11  2  0  0  0  0
  9 13  1  0  0  0  0
  9 14  1  0  0  0  0
  9 15  1  0  0  0  0
 10 16  1  0  0  0  0
 10 17  1  0  0  0  0
 10 18  1  0  0  0  0
 19 20  1  0  0  0  0
 20 21  4  0  0  0  0
 20 25  4  0  0  0  0
 21 22  4  0  0  0  0
 21 26  1  0  0  0  0
 22 23  4  0  0  0  0
 22 27  1  0  0  0  0
 23 24  4  0  0  0  0
 23 28  1  0  0  0  0
 24 25  4  0  0  0  0
 24 29  1  0  0  0  0
 25 30  1  0  0  0  0
 26 31  1  0  0  0  0
 26 32  1  0  0  0  0
M  END
> <BCLConfClusterSize>
1

> <ConfClashScore>
0 

> <ConfOneFourInteractionScore>
-0.986627 

> <ConfScore>
-0.258028 

> <ConfScorePBest>
0.00734966 

> <ConfTolerance>
0.215167 

> <RosettaParamsInstructions>
M  ROOT 3
M  POLY_N_BB 3
M  POLY_CA_BB 4
M  POLY_C_BB 2
M  POLY_O_BB 5
M  POLY_IGNORE 9 10 11 12 13 14 15 16 17 18 
M  POLY_UPPER 6
M  POLY_LOWER 8
M  POLY_CHG 0
M  POLY_PROPERTIES ALPHA_AA L_AA PROTEIN AROMATIC POLYMER 
M  END

$$$$



 32 32  0  0  0  0  0  0  0  0999 V2000
   -1.5236    2.9320    3.4308 H   0  0  0  1  0  0  0  0  0  0  0  0
   -0.4645    1.1449    3.0935 C   0  0  0  1  0  0  0  0  0  0  0  0
    0.3656    3.4753    2.7838 N   0  0  0  1  0  0  0  0  0  0  0  0
   -0.7952    2.5795    2.7308 C   0  0  0  1  0  0  0  0  0  0  0  0
   -1.3452    0.3671    3.4582 O   0  0  0  1  0  0  0  0  0  0  0  0
    0.8221    0.7485    3.0041 N   0  0  0  1  0  0  0  0  0  0  0  0
    0.5865    3.9881    1.9784 H   0  0  0  1  0  0  0  0  0  0  0  0
    1.1483    3.6379    3.8706 C   0  0  0  1  0  0  0  0  0  0  0  0
    1.1836   -0.6308    3.2953 C   0  0  0  1  0  0  0  0  0  0  0  0
    2.3839    4.4986    3.7344 C   0  0  0  1  0  0  0  0  0  0  0  0
    0.8672    3.1027    4.9421 O   0  0  0  1  0  0  0  0  0  0  0  0
    1.5146    1.3907    2.7426 H   0  0  0  1  0  0  0  0  0  0  0  0
    1.9961   -0.9276    2.6655 H   0  0  0  1  0  0  0  0  0  0  0  0
    0.3417   -1.2658    3.1141 H   0  0  0  1  0  0  0  0  0  0  0  0
    1.4789   -0.7130    4.3205 H   0  0  0  1  0  0  0  0  0  0  0  0
    2.1759    5.3214    3.0827 H   0  0  0  1  0  0  0  0  0  0  0  0
    3.1822    3.9141    3.3269 H   0  0  0  1  0  0  0  0  0  0  0  0
    2.6679    4.8694    4.6970 H   0  0  0  1  0  0  0  0  0  0  0  0
   -4.1392    3.2984    1.5955 F   0  0  0  1  0  0  0  0  0  0  0  0
   -3.3303    4.3096    1.2252 C   0  0  0  1  0  0  0  0  0  0  0  0
   -1.9735    4.0909    1.0783 C   0  0  0  1  0  0  0  0  0  0  0  0
   -1.1416    5.1304    0.6920 C   0  0  0  1  0  0  0  0  0  0  0  0
   -1.6685    6.3867    0.4589 C   0  0  0  1  0  0  0  0  0  0  0  0
   -3.0292    6.6061    0.6062 C   0  0  0  1  0  0  0  0  0  0  0  0
   -3.8584    5.5697    0.9914 C   0  0  0  1  0  0  0  0  0  0  0  0
   -1.3970    2.7193    1.3387 C   0  0  0  1  0  0  0  0  0  0  0  0
   -0.1213    4.9649    0.5776 H   0  0  0  1  0  0  0  0  0  0  0  0
   -1.0439    7.1676    0.1730 H   0  0  0  1  0  0  0  0  0  0  0  0
   -3.4261    7.5505    0.4269 H   0  0  0  1  0  0  0  0  0  0  0  0
   -4.8787    5.7352    1.1058 H   0  0  0  1  0  0  0  0  0  0  0  0
   -2.1778    1.9957    1.2310 H   0  0  0  1  0  0  0  0  0  0  0  0
   -0.6314    2.5288    0.6159 H   0  0  0  1  0  0  0  0  0  0  0  0
  1  4  1  0  0  0  0
  2  4  1  0  0  0  0
  2  5  2  0  0  0  0
  2  6  1  0  0  0  0
  3  4  1  0  0  0  0
  3  7  1  0  0  0  0
  3  8  1  0  0  0  0
  4 26  1  0  0  0  0
  6  9  1  0  0  0  0
  6 12  1  0  0  0  0
  8 10  1  0  0  0  0
  8 11  2  0  0  0  0
  9 13  1  0  0  0  0
  9 14  1  0  0  0  0
  9 15  1  0  0  0  0
 10 16  1  0  0  0  0
 10 17  1  0  0  0  0
 10 18  1  0  0  0  0
 19 20  1  0  0  0  0
 20 21  4  0  0  0  0
 20 25  4  0  0  0  0
 21 22  4  0  0  0  0
 21 26  1  0  0  0  0
 22 23  4  0  0  0  0
 22 27  1  0  0  0  0
 23 24  4  0  0  0  0
 23 28  1  0  0  0  0
 24 25  4  0  0  0  0
 24 29  1  0  0  0  0
 25 30  1  0  0  0  0
 26 31  1  0  0  0  0
 26 32  1  0  0  0  0
M  END
> <BCLConfClusterSize>
1

> <ConfClashScore>
0 

> <ConfOneFourInteractionScore>
-0.956443 

> <ConfScore>
-0.257642 

> <ConfScorePBest>
0.00732118 

> <ConfTolerance>
0.220349 

> <RosettaParamsInstructions>
M  ROOT 3
M  POLY_N_BB 3
M  POLY_CA_BB 4
M  POLY_C_BB 2
M  POLY_O_BB 5
M  POLY_IGNORE 9 10 11 12 13 14 15 16 17 18 
M  POLY_UPPER 6
M  POLY_LOWER 8
M  POLY_CHG 0
M  POLY_PROPERTIES ALPHA_AA L_AA PROTEIN AROMATIC POLYMER 
M  END

$$$$



 32 32  0  0  0  0  0  0  0  0999 V2000
   -0.0548    3.3104    2.8741 H   0  0  0  1  0  0  0  0  0  0  0  0
   -1.9870    3.1719    3.7467 C   0  0  0  1  0  0  0  0  0  0  0  0
   -0.5070    1.3104    3.1505 N   0  0  0  1  0  0  0  0  0  0  0  0
   -0.9029    2.6638    2.7878 C   0  0  0  1  0  0  0  0  0  0  0  0
   -2.1659    4.3792    3.8836 O   0  0  0  1  0  0  0  0  0  0  0  0
   -2.7537    2.2479    4.3327 N   0  0  0  1  0  0  0  0  0  0  0  0
   -0.4160    0.6385    2.4428 H   0  0  0  1  0  0  0  0  0  0  0  0
   -0.2613    0.9495    4.4251 C   0  0  0  1  0  0  0  0  0  0  0  0
   -3.8116    2.5291    5.2916 C   0  0  0  1  0  0  0  0  0  0  0  0
   -0.0499   -0.5410    4.6065 C   0  0  0  1  0  0  0  0  0  0  0  0
   -0.2066    1.7290    5.3753 O   0  0  0  1  0  0  0  0  0  0  0  0
   -2.5914    1.3100    4.0992 H   0  0  0  1  0  0  0  0  0  0  0  0
   -4.1788    3.5222    5.1373 H   0  0  0  1  0  0  0  0  0  0  0  0
   -3.4242    2.4428    6.2853 H   0  0  0  1  0  0  0  0  0  0  0  0
   -4.6097    1.8291    5.1574 H   0  0  0  1  0  0  0  0  0  0  0  0
    0.6935   -0.8829    3.9171 H   0  0  0  1  0  0  0  0  0  0  0  0
   -0.9697   -1.0563    4.4235 H   0  0  0  1  0  0  0  0  0  0  0  0
    0.2755   -0.7356    5.6071 H   0  0  0  1  0  0  0  0  0  0  0  0
   -4.1392    3.2983    1.5955 F   0  0  0  1  0  0  0  0  0  0  0  0
   -3.3303    4.3095    1.2252 C   0  0  0  1  0  0  0  0  0  0  0  0
   -1.9735    4.0910    1.0783 C   0  0  0  1  0  0  0  0  0  0  0  0
   -1.1417    5.1304    0.6920 C   0  0  0  1  0  0  0  0  0  0  0  0
   -1.6684    6.3867    0.4589 C   0  0  0  1  0  0  0  0  0  0  0  0
   -3.0292    6.6061    0.6062 C   0  0  0  1  0  0  0  0  0  0  0  0
   -3.8585    5.5697    0.9914 C   0  0  0  1  0  0  0  0  0  0  0  0
   -1.3970    2.7194    1.3387 C   0  0  0  1  0  0  0  0  0  0  0  0
   -0.1213    4.9649    0.5776 H   0  0  0  1  0  0  0  0  0  0  0  0
   -1.0438    7.1675    0.1730 H   0  0  0  1  0  0  0  0  0  0  0  0
   -3.4261    7.5506    0.4269 H   0  0  0  1  0  0  0  0  0  0  0  0
   -4.8788    5.7352    1.1058 H   0  0  0  1  0  0  0  0  0  0  0  0
   -2.1519    1.9764    1.1866 H   0  0  0  1  0  0  0  0  0  0  0  0
   -0.5795    2.5396    0.6721 H   0  0  0  1  0  0  0  0  0  0  0  0
  1  4  1  0  0  0  0
  2  4  1  0  0  0  0
  2  5  2  0  0  0  0
  2  6  1  0  0  0  0
  3  4  1  0  0  0  0
  3  7  1  0  0  0  0
  3  8  1  0  0  0  0
  4 26  1  0  0  0  0
  6  9  1  0  0  0  0
  6 12  1  0  0  0  0
  8 10  1  0  0  0  0
  8 11  2  0  0  0  0
  9 13  1  0  0  0  0
  9 14  1  0  0  0  0
  9 15  1  0  0  0  0
 10 16  1  0  0  0  0
 10 17  1  0  0  0  0
 10 18  1  0  0  0  0
 19 20  1  0  0  0  0
 20 21  4  0  0  0  0
 20 25  4  0  0  0  0
 21 22  4  0  0  0  0
 21 26  1  0  0  0  0
 22 23  4  0  0  0  0
 22 27  1  0  0  0  0
 23 24  4  0  0  0  0
 23 28  1  0  0  0  0
 24 25  4  0  0  0  0
 24 29  1  0  0  0  0
 25 30  1  0  0  0  0
 26 31  1  0  0  0  0
 26 32  1  0  0  0  0
M  END
> <BCLConfClusterSize>
1

> <ConfClashScore>
0 

> <ConfOneFourInteractionScore>
-0.953269 

> <ConfScore>
-0.255293 

> <ConfScorePBest>
0.0072927 

> <ConfTolerance>
0.253448 

> <RosettaParamsInstructions>
M  ROOT 3
M  POLY_N_BB 3
M  POLY_CA_BB 4
M  POLY_C_BB 2
M  POLY_O_BB 5
M  POLY_IGNORE 9 10 11 12 13 14 15 16 17 18 
M  POLY_UPPER 6
M  POLY_LOWER 8
M  POLY_CHG 0
M  POLY_PROPERTIES ALPHA_AA L_AA PROTEIN AROMATIC POLYMER 
M  END

$$$$



 32 32  0  0  0  0  0  0  0  0999 V2000
   -0.0833    3.4231    2.8437 H   0  0  0  1  0  0  0  0  0  0  0  0
   -1.9011    2.8817    3.7646 C   0  0  0  1  0  0  0  0  0  0  0  0
   -0.1302    1.3599    2.9166 N   0  0  0  1  0  0  0  0  0  0  0  0
   -0.8042    2.6384    2.7464 C   0  0  0  1  0  0  0  0  0  0  0  0
   -2.2463    4.0125    4.0654 O   0  0  0  1  0  0  0  0  0  0  0  0
   -2.4512    1.7871    4.2978 N   0  0  0  1  0  0  0  0  0  0  0  0
   -0.0507    0.7813    2.1296 H   0  0  0  1  0  0  0  0  0  0  0  0
    0.3934    0.9111    4.0762 C   0  0  0  1  0  0  0  0  0  0  0  0
   -3.5617    1.8533    5.2360 C   0  0  0  1  0  0  0  0  0  0  0  0
    1.2088   -0.3669    4.0428 C   0  0  0  1  0  0  0  0  0  0  0  0
    0.2162    1.5179    5.1292 O   0  0  0  1  0  0  0  0  0  0  0  0
   -2.0945    0.9090    4.0483 H   0  0  0  1  0  0  0  0  0  0  0  0
   -3.6317    2.8427    5.6373 H   0  0  0  1  0  0  0  0  0  0  0  0
   -3.3981    1.1567    6.0316 H   0  0  0  1  0  0  0  0  0  0  0  0
   -4.4717    1.6091    4.7290 H   0  0  0  1  0  0  0  0  0  0  0  0
    2.0491   -0.2375    3.3932 H   0  0  0  1  0  0  0  0  0  0  0  0
    0.5996   -1.1691    3.6819 H   0  0  0  1  0  0  0  0  0  0  0  0
    1.5531   -0.5959    5.0297 H   0  0  0  1  0  0  0  0  0  0  0  0
   -4.1391    3.2984    1.5955 F   0  0  0  1  0  0  0  0  0  0  0  0
   -3.3302    4.3096    1.2252 C   0  0  0  1  0  0  0  0  0  0  0  0
   -1.9734    4.0909    1.0783 C   0  0  0  1  0  0  0  0  0  0  0  0
   -1.1418    5.1304    0.6920 C   0  0  0  1  0  0  0  0  0  0  0  0
   -1.6684    6.3868    0.4589 C   0  0  0  1  0  0  0  0  0  0  0  0
   -3.0291    6.6060    0.6062 C   0  0  0  1  0  0  0  0  0  0  0  0
   -3.8586    5.5697    0.9914 C   0  0  0  1  0  0  0  0  0  0  0  0
   -1.3969    2.7193    1.3387 C   0  0  0  1  0  0  0  0  0  0  0  0
   -0.1214    4.9649    0.5776 H   0  0  0  1  0  0  0  0  0  0  0  0
   -1.0437    7.1676    0.1729 H   0  0  0  1  0  0  0  0  0  0  0  0
   -3.4260    7.5505    0.4269 H   0  0  0  1  0  0  0  0  0  0  0  0
   -4.8789    5.7352    1.1058 H   0  0  0  1  0  0  0  0  0  0  0  0
   -2.1726    1.9886    1.2422 H   0  0  0  1  0  0  0  0  0  0  0  0
   -0.6277    2.5202    0.6221 H   0  0  0  1  0  0  0  0  0  0  0  0
  1  4  1  0  0  0  0
  2  4  1  0  0  0  0
  2  5  2  0  0  0  0
  2  6  1  0  0  0  0
  3  4  1  0  0  0  0
  3  7  1  0  0  0  0
  3  8  1  0  0  0  0
  4 26  1  0  0  0  0
  6  9  1  0  0  0  0
  6 12  1  0  0  0  0
  8 10  1  0  0  0  0
  8 11  2  0  0  0  0
  9 13  1  0  0  0  0
  9 14  1  0  0  0  0
  9 15  1  0  0  0  0
 10 16  1  0  0  0  0
 10 17  1  0  0  0  0
 10 18  1  0  0  0  0
 19 20  1  0  0  0  0
 20 21  4  0  0  0  0
 20 25  4  0  0  0  0
 21 22  4  0  0  0  0
 21 26  1  0  0  0  0
 22 23  4  0  0  0  0
 22 27  1  0  0  0  0
 23 24  4  0  0  0  0
 23 28  1  0  0  0  0
 24 25  4  0  0  0  0
 24 29  1  0  0  0  0
 25 30  1  0  0  0  0
 26 31  1  0  0  0  0
 26 32  1  0  0  0  0
M  END
> <BCLConfClusterSize>
1

> <ConfClashScore>
0 

> <ConfOneFourInteractionScore>
-0.960318 

> <ConfScore>
-0.254381 

> <ConfScorePBest>
0.00726422 

> <ConfTolerance>
0.216066 

> <RosettaParamsInstructions>
M  ROOT 3
M  POLY_N_BB 3
M  POLY_CA_BB 4
M  POLY_C_BB 2
M  POLY_O_BB 5
M  POLY_IGNORE 9 10 11 12 13 14 15 16 17 18 
M  POLY_UPPER 6
M  POLY_LOWER 8
M  POLY_CHG 0
M  POLY_PROPERTIES ALPHA_AA L_AA PROTEIN AROMATIC POLYMER 
M  END

$$$$



 32 32  0  0  0  0  0  0  0  0999 V2000
   -2.2540    1.6521   -0.2743 H   0  0  0  1  0  0  0  0  0  0  0  0
   -0.5543    2.6114   -1.0681 C   0  0  0  1  0  0  0  0  0  0  0  0
   -0.5674    0.6334    0.3263 N   0  0  0  1  0  0  0  0  0  0  0  0
   -1.2650    1.8830    0.0627 C   0  0  0  1  0  0  0  0  0  0  0  0
   -1.1199    3.1607   -1.9955 O   0  0  0  1  0  0  0  0  0  0  0  0
    0.7771    2.5988   -0.9574 N   0  0  0  1  0  0  0  0  0  0  0  0
   -0.2796    0.3985    1.2332 H   0  0  0  1  0  0  0  0  0  0  0  0
   -0.3284   -0.1915   -0.7118 C   0  0  0  1  0  0  0  0  0  0  0  0
    1.6442    3.2457   -1.9309 C   0  0  0  1  0  0  0  0  0  0  0  0
    0.4201   -1.4692   -0.3229 C   0  0  0  1  0  0  0  0  0  0  0  0
   -0.6656    0.0299   -1.8741 O   0  0  0  1  0  0  0  0  0  0  0  0
    1.1839    2.1380   -0.1942 H   0  0  0  1  0  0  0  0  0  0  0  0
    1.1076    3.3934   -2.8447 H   0  0  0  1  0  0  0  0  0  0  0  0
    2.4976    2.6269   -2.1147 H   0  0  0  1  0  0  0  0  0  0  0  0
    1.9651    4.1923   -1.5489 H   0  0  0  1  0  0  0  0  0  0  0  0
    1.3848   -1.2144    0.0636 H   0  0  0  1  0  0  0  0  0  0  0  0
    0.5349   -2.0916   -1.1856 H   0  0  0  1  0  0  0  0  0  0  0  0
   -0.1362   -1.9945    0.4251 H   0  0  0  1  0  0  0  0  0  0  0  0
   -4.1397    3.3020    1.6037 F   0  0  0  1  0  0  0  0  0  0  0  0
   -3.3318    4.3116    1.2268 C   0  0  0  1  0  0  0  0  0  0  0  0
   -1.9715    4.0913    1.0765 C   0  0  0  1  0  0  0  0  0  0  0  0
   -1.1417    5.1287    0.6949 C   0  0  0  1  0  0  0  0  0  0  0  0
   -1.6704    6.3879    0.4572 C   0  0  0  1  0  0  0  0  0  0  0  0
   -3.0268    6.6072    0.6071 C   0  0  0  1  0  0  0  0  0  0  0  0
   -3.8591    5.5669    0.9899 C   0  0  0  1  0  0  0  0  0  0  0  0
   -1.3962    2.7179    1.3298 C   0  0  0  1  0  0  0  0  0  0  0  0
   -0.1205    4.9645    0.5860 H   0  0  0  1  0  0  0  0  0  0  0  0
   -1.0466    7.1674    0.1661 H   0  0  0  1  0  0  0  0  0  0  0  0
   -3.4230    7.5528    0.4327 H   0  0  0  1  0  0  0  0  0  0  0  0
   -4.8803    5.7310    1.0988 H   0  0  0  1  0  0  0  0  0  0  0  0
   -0.4254    2.8304    1.7655 H   0  0  0  1  0  0  0  0  0  0  0  0
   -2.0368    2.2011    2.0134 H   0  0  0  1  0  0  0  0  0  0  0  0
  1  4  1  0  0  0  0
  2  4  1  0  0  0  0
  2  5  2  0  0  0  0
  2  6  1  0  0  0  0
  3  4  1  0  0  0  0
  3  7  1  0  0  0  0
  3  8  1  0  0  0  0
  4 26  1  0  0  0  0
  6  9  1  0  0  0  0
  6 12  1  0  0  0  0
  8 10  1  0  0  0  0
  8 11  2  0  0  0  0
  9 13  1  0  0  0  0
  9 14  1  0  0  0  0
  9 15  1  0  0  0  0
 10 16  1  0  0  0  0
 10 17  1  0  0  0  0
 10 18  1  0  0  0  0
 19 20  1  0  0  0  0
 20 21  4  0  0  0  0
 20 25  4  0  0  0  0
 21 22  4  0  0  0  0
 21 26  1  0  0  0  0
 22 23  4  0  0  0  0
 22 27  1  0  0  0  0
 23 24  4  0  0  0  0
 23 28  1  0  0  0  0
 24 25  4  0  0  0  0
 24 29  1  0  0  0  0
 25 30  1  0  0  0  0
 26 31  1  0  0  0  0
 26 32  1  0  0  0  0
M  END
> <BCLConfClusterSize>
1

> <ConfClashScore>
0 

> <ConfOneFourInteractionScore>
-0.949394 

> <ConfScore>
-0.253125 

> <ConfScorePBest>
0.00723574 

> <ConfTolerance>
0.212041 

> <RosettaParamsInstructions>
M  ROOT 3
M  POLY_N_BB 3
M  POLY_CA_BB 4
M  POLY_C_BB 2
M  POLY_O_BB 5
M  POLY_IGNORE 9 10 11 12 13 14 15 16 17 18 
M  POLY_UPPER 6
M  POLY_LOWER 8
M  POLY_CHG 0
M  POLY_PROPERTIES ALPHA_AA L_AA PROTEIN AROMATIC POLYMER 
M  END

$$$$



 32 32  0  0  0  0  0  0  0  0999 V2000
   -0.3088    2.3308   -0.4429 H   0  0  0  1  0  0  0  0  0  0  0  0
   -0.7631    0.4498    0.4129 C   0  0  0  1  0  0  0  0  0  0  0  0
   -2.2947    1.8413   -0.7776 N   0  0  0  1  0  0  0  0  0  0  0  0
   -1.1250    1.8858    0.0871 C   0  0  0  1  0  0  0  0  0  0  0  0
   -1.6192   -0.4329    0.4437 O   0  0  0  1  0  0  0  0  0  0  0  0
    0.5356    0.2175    0.6606 N   0  0  0  1  0  0  0  0  0  0  0  0
   -3.1305    1.4716   -0.4238 H   0  0  0  1  0  0  0  0  0  0  0  0
   -2.2686    2.2907   -2.0474 C   0  0  0  1  0  0  0  0  0  0  0  0
    0.9622   -1.0776    1.1691 C   0  0  0  1  0  0  0  0  0  0  0  0
   -3.5645    2.0634   -2.8011 C   0  0  0  1  0  0  0  0  0  0  0  0
   -1.3103    2.8333   -2.5724 O   0  0  0  1  0  0  0  0  0  0  0  0
    1.1979    0.9215    0.4986 H   0  0  0  1  0  0  0  0  0  0  0  0
    0.2043   -1.4769    1.8102 H   0  0  0  1  0  0  0  0  0  0  0  0
    1.8714   -0.9618    1.7213 H   0  0  0  1  0  0  0  0  0  0  0  0
    1.1246   -1.7463    0.3497 H   0  0  0  1  0  0  0  0  0  0  0  0
   -3.3747    1.4602   -3.6642 H   0  0  0  1  0  0  0  0  0  0  0  0
   -3.9691    3.0056   -3.1068 H   0  0  0  1  0  0  0  0  0  0  0  0
   -4.2644    1.5640   -2.1642 H   0  0  0  1  0  0  0  0  0  0  0  0
   -4.1397    3.3020    1.6037 F   0  0  0  1  0  0  0  0  0  0  0  0
   -3.3318    4.3116    1.2268 C   0  0  0  1  0  0  0  0  0  0  0  0
   -1.9715    4.0913    1.0765 C   0  0  0  1  0  0  0  0  0  0  0  0
   -1.1417    5.1287    0.6949 C   0  0  0  1  0  0  0  0  0  0  0  0
   -1.6704    6.3879    0.4572 C   0  0  0  1  0  0  0  0  0  0  0  0
   -3.0268    6.6072    0.6071 C   0  0  0  1  0  0  0  0  0  0  0  0
   -3.8591    5.5669    0.9899 C   0  0  0  1  0  0  0  0  0  0  0  0
   -1.3962    2.7179    1.3298 C   0  0  0  1  0  0  0  0  0  0  0  0
   -0.1205    4.9645    0.5860 H   0  0  0  1  0  0  0  0  0  0  0  0
   -1.0466    7.1674    0.1661 H   0  0  0  1  0  0  0  0  0  0  0  0
   -3.4230    7.5528    0.4327 H   0  0  0  1  0  0  0  0  0  0  0  0
   -4.8803    5.7310    1.0988 H   0  0  0  1  0  0  0  0  0  0  0  0
   -0.4714    2.8390    1.8542 H   0  0  0  1  0  0  0  0  0  0  0  0
   -2.0870    2.1787    1.9437 H   0  0  0  1  0  0  0  0  0  0  0  0
  1  4  1  0  0  0  0
  2  4  1  0  0  0  0
  2  5  2  0  0  0  0
  2  6  1  0  0  0  0
  3  4  1  0  0  0  0
  3  7  1  0  0  0  0
  3  8  1  0  0  0  0
  4 26  1  0  0  0  0
  6  9  1  0  0  0  0
  6 12  1  0  0  0  0
  8 10  1  0  0  0  0
  8 11  2  0  0  0  0
  9 13  1  0  0  0  0
  9 14  1  0  0  0  0
  9 15  1  0  0  0  0
 10 16  1  0  0  0  0
 10 17  1  0  0  0  0
 10 18  1  0  0  0  0
 19 20  1  0  0  0  0
 20 21  4  0  0  0  0
 20 25  4  0  0  0  0
 21 22  4  0  0  0  0
 21 26  1  0  0  0  0
 22 23  4  0  0  0  0
 22 27  1  0  0  0  0
 23 24  4  0  0  0  0
 23 28  1  0  0  0  0
 24 25  4  0  0  0  0
 24 29  1  0  0  0  0
 25 30  1  0  0  0  0
 26 31  1  0  0  0  0
 26 32  1  0  0  0  0
M  END
> <BCLConfClusterSize>
1

> <ConfClashScore>
0 

> <ConfOneFourInteractionScore>
-0.992391 

> <ConfScore>
-0.251278 

> <ConfScorePBest>
0.00720726 

> <ConfTolerance>
0.249259 

> <RosettaParamsInstructions>
M  ROOT 3
M  POLY_N_BB 3
M  POLY_CA_BB 4
M  POLY_C_BB 2
M  POLY_O_BB 5
M  POLY_IGNORE 9 10 11 12 13 14 15 16 17 18 
M  POLY_UPPER 6
M  POLY_LOWER 8
M  POLY_CHG 0
M  POLY_PROPERTIES ALPHA_AA L_AA PROTEIN AROMATIC POLYMER 
M  END

$$$$



 32 32  0  0  0  0  0  0  0  0999 V2000
   -2.5202    2.3745    3.0977 H   0  0  0  1  0  0  0  0  0  0  0  0
   -1.1718    0.7546    2.9118 C   0  0  0  1  0  0  0  0  0  0  0  0
   -0.6083    2.9540    3.6494 N   0  0  0  1  0  0  0  0  0  0  0  0
   -1.5120    2.2256    2.7716 C   0  0  0  1  0  0  0  0  0  0  0  0
   -2.0011   -0.1175    2.6669 O   0  0  0  1  0  0  0  0  0  0  0  0
    0.0730    0.4825    3.3136 N   0  0  0  1  0  0  0  0  0  0  0  0
    0.0529    3.5692    3.2689 H   0  0  0  1  0  0  0  0  0  0  0  0
   -0.6782    2.7863    4.9709 C   0  0  0  1  0  0  0  0  0  0  0  0
    0.5771   -0.8601    3.5608 C   0  0  0  1  0  0  0  0  0  0  0  0
    0.2419    3.6647    5.7960 C   0  0  0  1  0  0  0  0  0  0  0  0
   -1.4346    1.9756    5.5042 O   0  0  0  1  0  0  0  0  0  0  0  0
    0.6857    1.2350    3.4505 H   0  0  0  1  0  0  0  0  0  0  0  0
   -0.2326   -1.4985    3.8470 H   0  0  0  1  0  0  0  0  0  0  0  0
    1.3020   -0.8295    4.3472 H   0  0  0  1  0  0  0  0  0  0  0  0
    1.0324   -1.2395    2.6699 H   0  0  0  1  0  0  0  0  0  0  0  0
    0.6128    3.1082    6.6313 H   0  0  0  1  0  0  0  0  0  0  0  0
   -0.3005    4.5172    6.1483 H   0  0  0  1  0  0  0  0  0  0  0  0
    1.0627    3.9887    5.1908 H   0  0  0  1  0  0  0  0  0  0  0  0
   -4.1392    3.2983    1.5955 F   0  0  0  1  0  0  0  0  0  0  0  0
   -3.3303    4.3095    1.2252 C   0  0  0  1  0  0  0  0  0  0  0  0
   -1.9735    4.0910    1.0783 C   0  0  0  1  0  0  0  0  0  0  0  0
   -1.1417    5.1304    0.6920 C   0  0  0  1  0  0  0  0  0  0  0  0
   -1.6684    6.3867    0.4589 C   0  0  0  1  0  0  0  0  0  0  0  0
   -3.0292    6.6061    0.6062 C   0  0  0  1  0  0  0  0  0  0  0  0
   -3.8585    5.5697    0.9914 C   0  0  0  1  0  0  0  0  0  0  0  0
   -1.3970    2.7194    1.3387 C   0  0  0  1  0  0  0  0  0  0  0  0
   -0.1213    4.9649    0.5776 H   0  0  0  1  0  0  0  0  0  0  0  0
   -1.0438    7.1675    0.1730 H   0  0  0  1  0  0  0  0  0  0  0  0
   -3.4261    7.5506    0.4269 H   0  0  0  1  0  0  0  0  0  0  0  0
   -4.8788    5.7352    1.1058 H   0  0  0  1  0  0  0  0  0  0  0  0
   -1.9066    2.0218    0.7073 H   0  0  0  1  0  0  0  0  0  0  0  0
   -0.3590    2.7430    1.0800 H   0  0  0  1  0  0  0  0  0  0  0  0
  1  4  1  0  0  0  0
  2  4  1  0  0  0  0
  2  5  2  0  0  0  0
  2  6  1  0  0  0  0
  3  4  1  0  0  0  0
  3  7  1  0  0  0  0
  3  8  1  0  0  0  0
  4 26  1  0  0  0  0
  6  9  1  0  0  0  0
  6 12  1  0  0  0  0
  8 10  1  0  0  0  0
  8 11  2  0  0  0  0
  9 13  1  0  0  0  0
  9 14  1  0  0  0  0
  9 15  1  0  0  0  0
 10 16  1  0  0  0  0
 10 17  1  0  0  0  0
 10 18  1  0  0  0  0
 19 20  1  0  0  0  0
 20 21  4  0  0  0  0
 20 25  4  0  0  0  0
 21 22  4  0  0  0  0
 21 26  1  0  0  0  0
 22 23  4  0  0  0  0
 22 27  1  0  0  0  0
 23 24  4  0  0  0  0
 23 28  1  0  0  0  0
 24 25  4  0  0  0  0
 24 29  1  0  0  0  0
 25 30  1  0  0  0  0
 26 31  1  0  0  0  0
 26 32  1  0  0  0  0
M  END
> <BCLConfClusterSize>
1

> <ConfClashScore>
0 

> <ConfOneFourInteractionScore>
-0.94165 

> <ConfScore>
-0.249676 

> <ConfScorePBest>
0.00717878 

> <ConfTolerance>
0.194852 

> <RosettaParamsInstructions>
M  ROOT 3
M  POLY_N_BB 3
M  POLY_CA_BB 4
M  POLY_C_BB 2
M  POLY_O_BB 5
M  POLY_IGNORE 9 10 11 12 13 14 15 16 17 18 
M  POLY_UPPER 6
M  POLY_LOWER 8
M  POLY_CHG 0
M  POLY_PROPERTIES ALPHA_AA L_AA PROTEIN AROMATIC POLYMER 
M  END

$$$$



 32 32  0  0  0  0  0  0  0  0999 V2000
   -2.7456    1.7021    0.0353 H   0  0  0  1  0  0  0  0  0  0  0  0
   -1.0721    2.3266   -1.1215 C   0  0  0  1  0  0  0  0  0  0  0  0
   -1.1249    0.4528    0.3876 N   0  0  0  1  0  0  0  0  0  0  0  0
   -1.6859    1.7755    0.1635 C   0  0  0  1  0  0  0  0  0  0  0  0
   -1.6834    3.1338   -1.8204 O   0  0  0  1  0  0  0  0  0  0  0  0
    0.1140    1.8072   -1.4507 N   0  0  0  1  0  0  0  0  0  0  0  0
   -0.7458    0.2426    1.2665 H   0  0  0  1  0  0  0  0  0  0  0  0
   -1.1084   -0.4899   -0.5670 C   0  0  0  1  0  0  0  0  0  0  0  0
    0.8577    2.1630   -2.6500 C   0  0  0  1  0  0  0  0  0  0  0  0
   -0.3473   -1.7635   -0.2058 C   0  0  0  1  0  0  0  0  0  0  0  0
   -1.5959   -0.3388   -1.6864 O   0  0  0  1  0  0  0  0  0  0  0  0
    0.5083    1.1444   -0.8461 H   0  0  0  1  0  0  0  0  0  0  0  0
    1.2752    3.1414   -2.5342 H   0  0  0  1  0  0  0  0  0  0  0  0
    0.1993    2.1540   -3.4934 H   0  0  0  1  0  0  0  0  0  0  0  0
    1.6453    1.4553   -2.8040 H   0  0  0  1  0  0  0  0  0  0  0  0
   -0.7586   -2.1840    0.6880 H   0  0  0  1  0  0  0  0  0  0  0  0
    0.6846   -1.5291   -0.0473 H   0  0  0  1  0  0  0  0  0  0  0  0
   -0.4346   -2.4696   -1.0049 H   0  0  0  1  0  0  0  0  0  0  0  0
   -4.1391    3.2984    1.5955 F   0  0  0  1  0  0  0  0  0  0  0  0
   -3.3302    4.3096    1.2252 C   0  0  0  1  0  0  0  0  0  0  0  0
   -1.9734    4.0909    1.0783 C   0  0  0  1  0  0  0  0  0  0  0  0
   -1.1418    5.1304    0.6920 C   0  0  0  1  0  0  0  0  0  0  0  0
   -1.6684    6.3868    0.4589 C   0  0  0  1  0  0  0  0  0  0  0  0
   -3.0291    6.6060    0.6062 C   0  0  0  1  0  0  0  0  0  0  0  0
   -3.8586    5.5697    0.9914 C   0  0  0  1  0  0  0  0  0  0  0  0
   -1.3969    2.7193    1.3387 C   0  0  0  1  0  0  0  0  0  0  0  0
   -0.1214    4.9649    0.5776 H   0  0  0  1  0  0  0  0  0  0  0  0
   -1.0437    7.1676    0.1729 H   0  0  0  1  0  0  0  0  0  0  0  0
   -3.4260    7.5505    0.4269 H   0  0  0  1  0  0  0  0  0  0  0  0
   -4.8789    5.7352    1.1058 H   0  0  0  1  0  0  0  0  0  0  0  0
   -0.3383    2.8027    1.4695 H   0  0  0  1  0  0  0  0  0  0  0  0
   -1.8361    2.3171    2.2277 H   0  0  0  1  0  0  0  0  0  0  0  0
  1  4  1  0  0  0  0
  2  4  1  0  0  0  0
  2  5  2  0  0  0  0
  2  6  1  0  0  0  0
  3  4  1  0  0  0  0
  3  7  1  0  0  0  0
  3  8  1  0  0  0  0
  4 26  1  0  0  0  0
  6  9  1  0  0  0  0
  6 12  1  0  0  0  0
  8 10  1  0  0  0  0
  8 11  2  0  0  0  0
  9 13  1  0  0  0  0
  9 14  1  0  0  0  0
  9 15  1  0  0  0  0
 10 16  1  0  0  0  0
 10 17  1  0  0  0  0
 10 18  1  0  0  0  0
 19 20  1  0  0  0  0
 20 21  4  0  0  0  0
 20 25  4  0  0  0  0
 21 22  4  0  0  0  0
 21 26  1  0  0  0  0
 22 23  4  0  0  0  0
 22 27  1  0  0  0  0
 23 24  4  0  0  0  0
 23 28  1  0  0  0  0
 24 25  4  0  0  0  0
 24 29  1  0  0  0  0
 25 30  1  0  0  0  0
 26 31  1  0  0  0  0
 26 32  1  0  0  0  0
M  END
> <BCLConfClusterSize>
1

> <ConfClashScore>
0 

> <ConfOneFourInteractionScore>
-0.94165 

> <ConfScore>
-0.243776 

> <ConfScorePBest>
0.0071503 

> <ConfTolerance>
0.205427 

> <RosettaParamsInstructions>
M  ROOT 3
M  POLY_N_BB 3
M  POLY_CA_BB 4
M  POLY_C_BB 2
M  POLY_O_BB 5
M  POLY_IGNORE 9 10 11 12 13 14 15 16 17 18 
M  POLY_UPPER 6
M  POLY_LOWER 8
M  POLY_CHG 0
M  POLY_PROPERTIES ALPHA_AA L_AA PROTEIN AROMATIC POLYMER 
M  END

$$$$



 32 32  0  0  0  0  0  0  0  0999 V2000
    0.3768    2.7367    0.1635 H   0  0  0  1  0  0  0  0  0  0  0  0
   -0.2685    0.7253    0.4536 C   0  0  0  1  0  0  0  0  0  0  0  0
   -1.2203    2.3026   -1.1023 N   0  0  0  1  0  0  0  0  0  0  0  0
   -0.5486    2.1999    0.1854 C   0  0  0  1  0  0  0  0  0  0  0  0
    0.5953    0.3709    1.2389 O   0  0  0  1  0  0  0  0  0  0  0  0
   -1.0487   -0.1050   -0.2443 N   0  0  0  1  0  0  0  0  0  0  0  0
   -2.1569    2.5909   -1.1030 H   0  0  0  1  0  0  0  0  0  0  0  0
   -0.6572    2.0338   -2.2806 C   0  0  0  1  0  0  0  0  0  0  0  0
   -0.7879   -1.5346   -0.3234 C   0  0  0  1  0  0  0  0  0  0  0  0
   -1.5429    2.2340   -3.4950 C   0  0  0  1  0  0  0  0  0  0  0  0
    0.5032    1.6479   -2.3947 O   0  0  0  1  0  0  0  0  0  0  0  0
   -1.8236    0.2614   -0.7194 H   0  0  0  1  0  0  0  0  0  0  0  0
   -0.8329   -1.9606    0.6571 H   0  0  0  1  0  0  0  0  0  0  0  0
    0.1849   -1.6969   -0.7383 H   0  0  0  1  0  0  0  0  0  0  0  0
   -1.5240   -1.9972   -0.9471 H   0  0  0  1  0  0  0  0  0  0  0  0
   -2.5640    2.0642   -3.2241 H   0  0  0  1  0  0  0  0  0  0  0  0
   -1.2580    1.5440   -4.2615 H   0  0  0  1  0  0  0  0  0  0  0  0
   -1.4317    3.2350   -3.8561 H   0  0  0  1  0  0  0  0  0  0  0  0
   -4.1392    3.2984    1.5955 F   0  0  0  1  0  0  0  0  0  0  0  0
   -3.3303    4.3096    1.2252 C   0  0  0  1  0  0  0  0  0  0  0  0
   -1.9735    4.0909    1.0783 C   0  0  0  1  0  0  0  0  0  0  0  0
   -1.1416    5.1304    0.6920 C   0  0  0  1  0  0  0  0  0  0  0  0
   -1.6685    6.3867    0.4589 C   0  0  0  1  0  0  0  0  0  0  0  0
   -3.0292    6.6061    0.6062 C   0  0  0  1  0  0  0  0  0  0  0  0
   -3.8584    5.5697    0.9914 C   0  0  0  1  0  0  0  0  0  0  0  0
   -1.3970    2.7193    1.3387 C   0  0  0  1  0  0  0  0  0  0  0  0
   -0.1213    4.9649    0.5776 H   0  0  0  1  0  0  0  0  0  0  0  0
   -1.0439    7.1676    0.1730 H   0  0  0  1  0  0  0  0  0  0  0  0
   -3.4261    7.5505    0.4269 H   0  0  0  1  0  0  0  0  0  0  0  0
   -4.8787    5.7352    1.1058 H   0  0  0  1  0  0  0  0  0  0  0  0
   -0.7864    2.7675    2.2160 H   0  0  0  1  0  0  0  0  0  0  0  0
   -2.2041    2.0361    1.5023 H   0  0  0  1  0  0  0  0  0  0  0  0
  1  4  1  0  0  0  0
  2  4  1  0  0  0  0
  2  5  2  0  0  0  0
  2  6  1  0  0  0  0
  3  4  1  0  0  0  0
  3  7  1  0  0  0  0
  3  8  1  0  0  0  0
  4 26  1  0  0  0  0
  6  9  1  0  0  0  0
  6 12  1  0  0  0  0
  8 10  1  0  0  0  0
  8 11  2  0  0  0  0
  9 13  1  0  0  0  0
  9 14  1  0  0  0  0
  9 15  1  0  0  0  0
 10 16  1  0  0  0  0
 10 17  1  0  0  0  0
 10 18  1  0  0  0  0
 19 20  1  0  0  0  0
 20 21  4  0  0  0  0
 20 25  4  0  0  0  0
 21 22  4  0  0  0  0
 21 26  1  0  0  0  0
 22 23  4  0  0  0  0
 22 27  1  0  0  0  0
 23 24  4  0  0  0  0
 23 28  1  0  0  0  0
 24 25  4  0  0  0  0
 24 29  1  0  0  0  0
 25 30  1  0  0  0  0
 26 31  1  0  0  0  0
 26 32  1  0  0  0  0
M  END
> <BCLConfClusterSize>
1

> <ConfClashScore>
0 

> <ConfOneFourInteractionScore>
-0.94165 

> <ConfScore>
-0.240019 

> <ConfScorePBest>
0.00712182 

> <ConfTolerance>
0.320013 

> <RosettaParamsInstructions>
M  ROOT 3
M  POLY_N_BB 3
M  POLY_CA_BB 4
M  POLY_C_BB 2
M  POLY_O_BB 5
M  POLY_IGNORE 9 10 11 12 13 14 15 16 17 18 
M  POLY_UPPER 6
M  POLY_LOWER 8
M  POLY_CHG 0
M  POLY_PROPERTIES ALPHA_AA L_AA PROTEIN AROMATIC POLYMER 
M  END

$$$$



 32 32  0  0  0  0  0  0  0  0999 V2000
   -1.3095    2.8668    3.4273 H   0  0  0  1  0  0  0  0  0  0  0  0
   -0.4725    1.0073    2.8825 C   0  0  0  1  0  0  0  0  0  0  0  0
    0.5908    3.1928    2.6749 N   0  0  0  1  0  0  0  0  0  0  0  0
   -0.6865    2.4893    2.6435 C   0  0  0  1  0  0  0  0  0  0  0  0
    0.4790    0.4186    2.3761 O   0  0  0  1  0  0  0  0  0  0  0  0
   -1.3528    0.3602    3.6625 N   0  0  0  1  0  0  0  0  0  0  0  0
    1.2285    3.0065    1.9544 H   0  0  0  1  0  0  0  0  0  0  0  0
    0.9564    4.0706    3.6103 C   0  0  0  1  0  0  0  0  0  0  0  0
   -1.1974   -1.0649    3.9133 C   0  0  0  1  0  0  0  0  0  0  0  0
    2.2102    4.8690    3.3104 C   0  0  0  1  0  0  0  0  0  0  0  0
    0.3292    4.2357    4.6557 O   0  0  0  1  0  0  0  0  0  0  0  0
   -2.1018    0.8485    4.0638 H   0  0  0  1  0  0  0  0  0  0  0  0
   -0.5252   -1.4830    3.1934 H   0  0  0  1  0  0  0  0  0  0  0  0
   -2.1495   -1.5467    3.8339 H   0  0  0  1  0  0  0  0  0  0  0  0
   -0.8032   -1.2127    4.8970 H   0  0  0  1  0  0  0  0  0  0  0  0
    2.4116    5.5360    4.1224 H   0  0  0  1  0  0  0  0  0  0  0  0
    2.0671    5.4333    2.4127 H   0  0  0  1  0  0  0  0  0  0  0  0
    3.0365    4.2010    3.1845 H   0  0  0  1  0  0  0  0  0  0  0  0
   -4.1398    3.3019    1.6037 F   0  0  0  1  0  0  0  0  0  0  0  0
   -3.3319    4.3114    1.2268 C   0  0  0  1  0  0  0  0  0  0  0  0
   -1.9715    4.0914    1.0765 C   0  0  0  1  0  0  0  0  0  0  0  0
   -1.1416    5.1287    0.6948 C   0  0  0  1  0  0  0  0  0  0  0  0
   -1.6705    6.3878    0.4572 C   0  0  0  1  0  0  0  0  0  0  0  0
   -3.0268    6.6073    0.6071 C   0  0  0  1  0  0  0  0  0  0  0  0
   -3.8590    5.5669    0.9899 C   0  0  0  1  0  0  0  0  0  0  0  0
   -1.3961    2.7180    1.3297 C   0  0  0  1  0  0  0  0  0  0  0  0
   -0.1204    4.9646    0.5860 H   0  0  0  1  0  0  0  0  0  0  0  0
   -1.0467    7.1673    0.1662 H   0  0  0  1  0  0  0  0  0  0  0  0
   -3.4230    7.5529    0.4327 H   0  0  0  1  0  0  0  0  0  0  0  0
   -4.8802    5.7311    1.0987 H   0  0  0  1  0  0  0  0  0  0  0  0
   -2.2034    2.0178    1.2757 H   0  0  0  1  0  0  0  0  0  0  0  0
   -0.6947    2.5155    0.5475 H   0  0  0  1  0  0  0  0  0  0  0  0
  1  4  1  0  0  0  0
  2  4  1  0  0  0  0
  2  5  2  0  0  0  0
  2  6  1  0  0  0  0
  3  4  1  0  0  0  0
  3  7  1  0  0  0  0
  3  8  1  0  0  0  0
  4 26  1  0  0  0  0
  6  9  1  0  0  0  0
  6 12  1  0  0  0  0
  8 10  1  0  0  0  0
  8 11  2  0  0  0  0
  9 13  1  0  0  0  0
  9 14  1  0  0  0  0
  9 15  1  0  0  0  0
 10 16  1  0  0  0  0
 10 17  1  0  0  0  0
 10 18  1  0  0  0  0
 19 20  1  0  0  0  0
 20 21  4  0  0  0  0
 20 25  4  0  0  0  0
 21 22  4  0  0  0  0
 21 26  1  0  0  0  0
 22 23  4  0  0  0  0
 22 27  1  0  0  0  0
 23 24  4  0  0  0  0
 23 28  1  0  0  0  0
 24 25  4  0  0  0  0
 24 29  1  0  0  0  0
 25 30  1  0  0  0  0
 26 31  1  0  0  0  0
 26 32  1  0  0  0  0
M  END
> <BCLConfClusterSize>
1

> <ConfClashScore>
0 

> <ConfOneFourInteractionScore>
-0.981931 

> <ConfScore>
-0.239899 

> <ConfScorePBest>
0.00709334 

> <ConfTolerance>
0.243112 

> <RosettaParamsInstructions>
M  ROOT 3
M  POLY_N_BB 3
M  POLY_CA_BB 4
M  POLY_C_BB 2
M  POLY_O_BB 5
M  POLY_IGNORE 9 10 11 12 13 14 15 16 17 18 
M  POLY_UPPER 6
M  POLY_LOWER 8
M  POLY_CHG 0
M  POLY_PROPERTIES ALPHA_AA L_AA PROTEIN AROMATIC POLYMER 
M  END

$$$$



 32 32  0  0  0  0  0  0  0  0999 V2000
    0.0884    3.2076    2.7491 H   0  0  0  1  0  0  0  0  0  0  0  0
   -1.7298    3.0888    3.7996 C   0  0  0  1  0  0  0  0  0  0  0  0
   -0.3594    1.2099    2.9511 N   0  0  0  1  0  0  0  0  0  0  0  0
   -0.7810    2.5843    2.7251 C   0  0  0  1  0  0  0  0  0  0  0  0
   -1.6735    4.2233    4.2382 O   0  0  0  1  0  0  0  0  0  0  0  0
   -2.6610    2.2622    4.2839 N   0  0  0  1  0  0  0  0  0  0  0  0
   -0.6669    0.4991    2.3506 H   0  0  0  1  0  0  0  0  0  0  0  0
    0.4462    0.9151    3.9754 C   0  0  0  1  0  0  0  0  0  0  0  0
   -3.5731    2.6561    5.3472 C   0  0  0  1  0  0  0  0  0  0  0  0
    0.8062   -0.5626    4.1111 C   0  0  0  1  0  0  0  0  0  0  0  0
    0.8238    1.7372    4.8060 O   0  0  0  1  0  0  0  0  0  0  0  0
   -2.7323    1.3591    3.9100 H   0  0  0  1  0  0  0  0  0  0  0  0
   -3.0474    3.2465    6.0683 H   0  0  0  1  0  0  0  0  0  0  0  0
   -3.9667    1.7814    5.8214 H   0  0  0  1  0  0  0  0  0  0  0  0
   -4.3759    3.2301    4.9337 H   0  0  0  1  0  0  0  0  0  0  0  0
    0.0190   -1.1610    3.7024 H   0  0  0  1  0  0  0  0  0  0  0  0
    0.9372   -0.8039    5.1453 H   0  0  0  1  0  0  0  0  0  0  0  0
    1.7147   -0.7583    3.5808 H   0  0  0  1  0  0  0  0  0  0  0  0
   -4.1390    3.2984    1.5955 F   0  0  0  1  0  0  0  0  0  0  0  0
   -3.3302    4.3097    1.2252 C   0  0  0  1  0  0  0  0  0  0  0  0
   -1.9734    4.0909    1.0783 C   0  0  0  1  0  0  0  0  0  0  0  0
   -1.1418    5.1304    0.6920 C   0  0  0  1  0  0  0  0  0  0  0  0
   -1.6684    6.3868    0.4589 C   0  0  0  1  0  0  0  0  0  0  0  0
   -3.0292    6.6061    0.6062 C   0  0  0  1  0  0  0  0  0  0  0  0
   -3.8585    5.5697    0.9914 C   0  0  0  1  0  0  0  0  0  0  0  0
   -1.3970    2.7192    1.3387 C   0  0  0  1  0  0  0  0  0  0  0  0
   -0.1214    4.9648    0.5776 H   0  0  0  1  0  0  0  0  0  0  0  0
   -1.0437    7.1676    0.1729 H   0  0  0  1  0  0  0  0  0  0  0  0
   -3.4261    7.5505    0.4269 H   0  0  0  1  0  0  0  0  0  0  0  0
   -4.8789    5.7352    1.1058 H   0  0  0  1  0  0  0  0  0  0  0  0
   -2.1803    1.9967    1.2423 H   0  0  0  1  0  0  0  0  0  0  0  0
   -0.6392    2.5241    0.6089 H   0  0  0  1  0  0  0  0  0  0  0  0
  1  4  1  0  0  0  0
  2  4  1  0  0  0  0
  2  5  2  0  0  0  0
  2  6  1  0  0  0  0
  3  4  1  0  0  0  0
  3  7  1  0  0  0  0
  3  8  1  0  0  0  0
  4 26  1  0  0  0  0
  6  9  1  0  0  0  0
  6 12  1  0  0  0  0
  8 10  1  0  0  0  0
  8 11  2  0  0  0  0
  9 13  1  0  0  0  0
  9 14  1  0  0  0  0
  9 15  1  0  0  0  0
 10 16  1  0  0  0  0
 10 17  1  0  0  0  0
 10 18  1  0  0  0  0
 19 20  1  0  0  0  0
 20 21  4  0  0  0  0
 20 25  4  0  0  0  0
 21 22  4  0  0  0  0
 21 26  1  0  0  0  0
 22 23  4  0  0  0  0
 22 27  1  0  0  0  0
 23 24  4  0  0  0  0
 23 28  1  0  0  0  0
 24 25  4  0  0  0  0
 24 29  1  0  0  0  0
 25 30  1  0  0  0  0
 26 31  1  0  0  0  0
 26 32  1  0  0  0  0
M  END
> <BCLConfClusterSize>
1

> <ConfClashScore>
0 

> <ConfOneFourInteractionScore>
-0.960318 

> <ConfScore>
-0.236357 

> <ConfScorePBest>
0.00706485 

> <ConfTolerance>
0.230891 

> <RosettaParamsInstructions>
M  ROOT 3
M  POLY_N_BB 3
M  POLY_CA_BB 4
M  POLY_C_BB 2
M  POLY_O_BB 5
M  POLY_IGNORE 9 10 11 12 13 14 15 16 17 18 
M  POLY_UPPER 6
M  POLY_LOWER 8
M  POLY_CHG 0
M  POLY_PROPERTIES ALPHA_AA L_AA PROTEIN AROMATIC POLYMER 
M  END

$$$$



 32 32  0  0  0  0  0  0  0  0999 V2000
   -0.4914    2.5624   -0.5756 H   0  0  0  1  0  0  0  0  0  0  0  0
   -0.5373    0.6028    0.1948 C   0  0  0  1  0  0  0  0  0  0  0  0
   -2.4083    1.8238   -0.7320 N   0  0  0  1  0  0  0  0  0  0  0  0
   -1.1659    1.9740    0.0107 C   0  0  0  1  0  0  0  0  0  0  0  0
    0.6853    0.5117    0.0952 O   0  0  0  1  0  0  0  0  0  0  0  0
   -1.3430   -0.4308    0.4548 N   0  0  0  1  0  0  0  0  0  0  0  0
   -3.2569    1.8376   -0.2420 H   0  0  0  1  0  0  0  0  0  0  0  0
   -2.4323    1.6677   -2.0587 C   0  0  0  1  0  0  0  0  0  0  0  0
   -0.7837   -1.7544    0.6779 C   0  0  0  1  0  0  0  0  0  0  0  0
   -3.8097    1.5880   -2.6878 C   0  0  0  1  0  0  0  0  0  0  0  0
   -1.4143    1.5918   -2.7417 O   0  0  0  1  0  0  0  0  0  0  0  0
   -2.3129   -0.2966    0.4953 H   0  0  0  1  0  0  0  0  0  0  0  0
   -0.2934   -2.0896   -0.2121 H   0  0  0  1  0  0  0  0  0  0  0  0
   -1.5695   -2.4355    0.9300 H   0  0  0  1  0  0  0  0  0  0  0  0
   -0.0768   -1.7121    1.4800 H   0  0  0  1  0  0  0  0  0  0  0  0
   -4.2891    0.6810   -2.3839 H   0  0  0  1  0  0  0  0  0  0  0  0
   -3.7161    1.6019   -3.7536 H   0  0  0  1  0  0  0  0  0  0  0  0
   -4.3957    2.4248   -2.3698 H   0  0  0  1  0  0  0  0  0  0  0  0
   -4.1397    3.3019    1.6037 F   0  0  0  1  0  0  0  0  0  0  0  0
   -3.3319    4.3114    1.2268 C   0  0  0  1  0  0  0  0  0  0  0  0
   -1.9715    4.0915    1.0765 C   0  0  0  1  0  0  0  0  0  0  0  0
   -1.1416    5.1287    0.6948 C   0  0  0  1  0  0  0  0  0  0  0  0
   -1.6705    6.3877    0.4572 C   0  0  0  1  0  0  0  0  0  0  0  0
   -3.0268    6.6073    0.6071 C   0  0  0  1  0  0  0  0  0  0  0  0
   -3.8591    5.5669    0.9899 C   0  0  0  1  0  0  0  0  0  0  0  0
   -1.3961    2.7181    1.3297 C   0  0  0  1  0  0  0  0  0  0  0  0
   -0.1204    4.9645    0.5860 H   0  0  0  1  0  0  0  0  0  0  0  0
   -1.0466    7.1673    0.1662 H   0  0  0  1  0  0  0  0  0  0  0  0
   -3.4230    7.5530    0.4327 H   0  0  0  1  0  0  0  0  0  0  0  0
   -4.8802    5.7310    1.0988 H   0  0  0  1  0  0  0  0  0  0  0  0
   -0.4630    2.8180    1.8437 H   0  0  0  1  0  0  0  0  0  0  0  0
   -2.0786    2.1578    1.9341 H   0  0  0  1  0  0  0  0  0  0  0  0
  1  4  1  0  0  0  0
  2  4  1  0  0  0  0
  2  5  2  0  0  0  0
  2  6  1  0  0  0  0
  3  4  1  0  0  0  0
  3  7  1  0  0  0  0
  3  8  1  0  0  0  0
  4 26  1  0  0  0  0
  6  9  1  0  0  0  0
  6 12  1  0  0  0  0
  8 10  1  0  0  0  0
  8 11  2  0  0  0  0
  9 13  1  0  0  0  0
  9 14  1  0  0  0  0
  9 15  1  0  0  0  0
 10 16  1  0  0  0  0
 10 17  1  0  0  0  0
 10 18  1  0  0  0  0
 19 20  1  0  0  0  0
 20 21  4  0  0  0  0
 20 25  4  0  0  0  0
 21 22  4  0  0  0  0
 21 26  1  0  0  0  0
 22 23  4  0  0  0  0
 22 27  1  0  0  0  0
 23 24  4  0  0  0  0
 23 28  1  0  0  0  0
 24 25  4  0  0  0  0
 24 29  1  0  0  0  0
 25 30  1  0  0  0  0
 26 31  1  0  0  0  0
 26 32  1  0  0  0  0
M  END
> <BCLConfClusterSize>
1

> <ConfClashScore>
0 

> <ConfOneFourInteractionScore>
-0.960318 

> <ConfScore>
-0.23601 

> <ConfScorePBest>
0.00703637 

> <ConfTolerance>
0.240999 

> <RosettaParamsInstructions>
M  ROOT 3
M  POLY_N_BB 3
M  POLY_CA_BB 4
M  POLY_C_BB 2
M  POLY_O_BB 5
M  POLY_IGNORE 9 10 11 12 13 14 15 16 17 18 
M  POLY_UPPER 6
M  POLY_LOWER 8
M  POLY_CHG 0
M  POLY_PROPERTIES ALPHA_AA L_AA PROTEIN AROMATIC POLYMER 
M  END

$$$$



 32 32  0  0  0  0  0  0  0  0999 V2000
   -2.1363    1.8603   -0.4559 H   0  0  0  1  0  0  0  0  0  0  0  0
   -0.1792    2.5925   -0.8103 C   0  0  0  1  0  0  0  0  0  0  0  0
   -0.7707    0.5505    0.4043 N   0  0  0  1  0  0  0  0  0  0  0  0
   -1.2043    1.9019    0.0680 C   0  0  0  1  0  0  0  0  0  0  0  0
   -0.4935    3.5270   -1.5427 O   0  0  0  1  0  0  0  0  0  0  0  0
    1.0673    2.1184   -0.7302 N   0  0  0  1  0  0  0  0  0  0  0  0
   -0.5750    0.3358    1.3403 H   0  0  0  1  0  0  0  0  0  0  0  0
   -0.6312   -0.4048   -0.5192 C   0  0  0  1  0  0  0  0  0  0  0  0
    2.1890    2.7645   -1.3953 C   0  0  0  1  0  0  0  0  0  0  0  0
   -0.1119   -1.7373   -0.0152 C   0  0  0  1  0  0  0  0  0  0  0  0
   -0.8995   -0.2343   -1.6976 O   0  0  0  1  0  0  0  0  0  0  0  0
    1.2321    1.3074   -0.2054 H   0  0  0  1  0  0  0  0  0  0  0  0
    2.0058    2.8027   -2.4488 H   0  0  0  1  0  0  0  0  0  0  0  0
    3.0831    2.2070   -1.2089 H   0  0  0  1  0  0  0  0  0  0  0  0
    2.3029    3.7590   -1.0171 H   0  0  0  1  0  0  0  0  0  0  0  0
    0.8448   -1.5976    0.4430 H   0  0  0  1  0  0  0  0  0  0  0  0
   -0.0181   -2.4169   -0.8364 H   0  0  0  1  0  0  0  0  0  0  0  0
   -0.7962   -2.1378    0.7034 H   0  0  0  1  0  0  0  0  0  0  0  0
   -4.1391    3.2985    1.5955 F   0  0  0  1  0  0  0  0  0  0  0  0
   -3.3302    4.3097    1.2252 C   0  0  0  1  0  0  0  0  0  0  0  0
   -1.9734    4.0909    1.0783 C   0  0  0  1  0  0  0  0  0  0  0  0
   -1.1417    5.1304    0.6920 C   0  0  0  1  0  0  0  0  0  0  0  0
   -1.6684    6.3868    0.4589 C   0  0  0  1  0  0  0  0  0  0  0  0
   -3.0292    6.6060    0.6062 C   0  0  0  1  0  0  0  0  0  0  0  0
   -3.8585    5.5697    0.9914 C   0  0  0  1  0  0  0  0  0  0  0  0
   -1.3970    2.7192    1.3387 C   0  0  0  1  0  0  0  0  0  0  0  0
   -0.1214    4.9649    0.5776 H   0  0  0  1  0  0  0  0  0  0  0  0
   -1.0438    7.1677    0.1729 H   0  0  0  1  0  0  0  0  0  0  0  0
   -3.4261    7.5504    0.4269 H   0  0  0  1  0  0  0  0  0  0  0  0
   -4.8789    5.7352    1.1058 H   0  0  0  1  0  0  0  0  0  0  0  0
   -0.4468    2.8343    1.8170 H   0  0  0  1  0  0  0  0  0  0  0  0
   -2.0615    2.1881    1.9877 H   0  0  0  1  0  0  0  0  0  0  0  0
  1  4  1  0  0  0  0
  2  4  1  0  0  0  0
  2  5  2  0  0  0  0
  2  6  1  0  0  0  0
  3  4  1  0  0  0  0
  3  7  1  0  0  0  0
  3  8  1  0  0  0  0
  4 26  1  0  0  0  0
  6  9  1  0  0  0  0
  6 12  1  0  0  0  0
  8 10  1  0  0  0  0
  8 11  2  0  0  0  0
  9 13  1  0  0  0  0
  9 14  1  0  0  0  0
  9 15  1  0  0  0  0
 10 16  1  0  0  0  0
 10 17  1  0  0  0  0
 10 18  1  0  0  0  0
 19 20  1  0  0  0  0
 20 21  4  0  0  0  0
 20 25  4  0  0  0  0
 21 22  4  0  0  0  0
 21 26  1  0  0  0  0
 22 23  4  0  0  0  0
 22 27  1  0  0  0  0
 23 24  4  0  0  0  0
 23 28  1  0  0  0  0
 24 25  4  0  0  0  0
 24 29  1  0  0  0  0
 25 30  1  0  0  0  0
 26 31  1  0  0  0  0
 26 32  1  0  0  0  0
M  END
> <BCLConfClusterSize>
1

> <ConfClashScore>
0 

> <ConfOneFourInteractionScore>
-0.960318 

> <ConfScore>
-0.234267 

> <ConfScorePBest>
0.00700789 

> <ConfTolerance>
0.203191 

> <RosettaParamsInstructions>
M  ROOT 3
M  POLY_N_BB 3
M  POLY_CA_BB 4
M  POLY_C_BB 2
M  POLY_O_BB 5
M  POLY_IGNORE 9 10 11 12 13 14 15 16 17 18 
M  POLY_UPPER 6
M  POLY_LOWER 8
M  POLY_CHG 0
M  POLY_PROPERTIES ALPHA_AA L_AA PROTEIN AROMATIC POLYMER 
M  END

$$$$



 32 32  0  0  0  0  0  0  0  0999 V2000
   -1.2786    2.2255   -0.6955 H   0  0  0  1  0  0  0  0  0  0  0  0
   -0.8159    0.4736    0.3377 C   0  0  0  1  0  0  0  0  0  0  0  0
   -3.0588    1.4967   -0.0104 N   0  0  0  1  0  0  0  0  0  0  0  0
   -1.6376    1.7391    0.1874 C   0  0  0  1  0  0  0  0  0  0  0  0
    0.3351    0.4425    0.7407 O   0  0  0  1  0  0  0  0  0  0  0  0
   -1.4718   -0.6327   -0.0162 N   0  0  0  1  0  0  0  0  0  0  0  0
   -3.6465    1.5861    0.7687 H   0  0  0  1  0  0  0  0  0  0  0  0
   -3.6228    1.1614   -1.1743 C   0  0  0  1  0  0  0  0  0  0  0  0
   -0.8333   -1.9685   -0.0048 C   0  0  0  1  0  0  0  0  0  0  0  0
   -5.1380    1.1043   -1.1797 C   0  0  0  1  0  0  0  0  0  0  0  0
   -2.9709    0.9116   -2.1873 O   0  0  0  1  0  0  0  0  0  0  0  0
   -2.4089   -0.5588   -0.2933 H   0  0  0  1  0  0  0  0  0  0  0  0
   -0.2212   -2.0645    0.8676 H   0  0  0  1  0  0  0  0  0  0  0  0
   -0.2274   -2.0814   -0.8795 H   0  0  0  1  0  0  0  0  0  0  0  0
   -1.5898   -2.7251    0.0056 H   0  0  0  1  0  0  0  0  0  0  0  0
   -5.5329    2.0789   -0.9818 H   0  0  0  1  0  0  0  0  0  0  0  0
   -5.4718    0.4243   -0.4241 H   0  0  0  1  0  0  0  0  0  0  0  0
   -5.4786    0.7694   -2.1372 H   0  0  0  1  0  0  0  0  0  0  0  0
   -4.1391    3.2985    1.5955 F   0  0  0  1  0  0  0  0  0  0  0  0
   -3.3302    4.3097    1.2252 C   0  0  0  1  0  0  0  0  0  0  0  0
   -1.9734    4.0909    1.0783 C   0  0  0  1  0  0  0  0  0  0  0  0
   -1.1417    5.1304    0.6920 C   0  0  0  1  0  0  0  0  0  0  0  0
   -1.6684    6.3868    0.4589 C   0  0  0  1  0  0  0  0  0  0  0  0
   -3.0292    6.6060    0.6062 C   0  0  0  1  0  0  0  0  0  0  0  0
   -3.8585    5.5697    0.9914 C   0  0  0  1  0  0  0  0  0  0  0  0
   -1.3970    2.7192    1.3387 C   0  0  0  1  0  0  0  0  0  0  0  0
   -0.1214    4.9649    0.5776 H   0  0  0  1  0  0  0  0  0  0  0  0
   -1.0438    7.1677    0.1729 H   0  0  0  1  0  0  0  0  0  0  0  0
   -3.4261    7.5504    0.4269 H   0  0  0  1  0  0  0  0  0  0  0  0
   -4.8789    5.7352    1.1058 H   0  0  0  1  0  0  0  0  0  0  0  0
   -0.3420    2.8160    1.4888 H   0  0  0  1  0  0  0  0  0  0  0  0
   -1.8487    2.3224    2.2238 H   0  0  0  1  0  0  0  0  0  0  0  0
  1  4  1  0  0  0  0
  2  4  1  0  0  0  0
  2  5  2  0  0  0  0
  2  6  1  0  0  0  0
  3  4  1  0  0  0  0
  3  7  1  0  0  0  0
  3  8  1  0  0  0  0
  4 26  1  0  0  0  0
  6  9  1  0  0  0  0
  6 12  1  0  0  0  0
  8 10  1  0  0  0  0
  8 11  2  0  0  0  0
  9 13  1  0  0  0  0
  9 14  1  0  0  0  0
  9 15  1  0  0  0  0
 10 16  1  0  0  0  0
 10 17  1  0  0  0  0
 10 18  1  0  0  0  0
 19 20  1  0  0  0  0
 20 21  4  0  0  0  0
 20 25  4  0  0  0  0
 21 22  4  0  0  0  0
 21 26  1  0  0  0  0
 22 23  4  0  0  0  0
 22 27  1  0  0  0  0
 23 24  4  0  0  0  0
 23 28  1  0  0  0  0
 24 25  4  0  0  0  0
 24 29  1  0  0  0  0
 25 30  1  0  0  0  0
 26 31  1  0  0  0  0
 26 32  1  0  0  0  0
M  END
> <BCLConfClusterSize>
1

> <ConfClashScore>
0 

> <ConfOneFourInteractionScore>
-0.937775 

> <ConfScore>
-0.231753 

> <ConfScorePBest>
0.00697941 

> <ConfTolerance>
0.250821 

> <RosettaParamsInstructions>
M  ROOT 3
M  POLY_N_BB 3
M  POLY_CA_BB 4
M  POLY_C_BB 2
M  POLY_O_BB 5
M  POLY_IGNORE 9 10 11 12 13 14 15 16 17 18 
M  POLY_UPPER 6
M  POLY_LOWER 8
M  POLY_CHG 0
M  POLY_PROPERTIES ALPHA_AA L_AA PROTEIN AROMATIC POLYMER 
M  END

$$$$



 32 32  0  0  0  0  0  0  0  0999 V2000
   -2.0802    2.2900    3.2877 H   0  0  0  1  0  0  0  0  0  0  0  0
   -0.4173    1.0564    2.8883 C   0  0  0  1  0  0  0  0  0  0  0  0
   -0.3996    3.4832    3.4184 N   0  0  0  1  0  0  0  0  0  0  0  0
   -1.1336    2.3899    2.7989 C   0  0  0  1  0  0  0  0  0  0  0  0
    0.7979    0.9716    2.7161 O   0  0  0  1  0  0  0  0  0  0  0  0
   -1.1923   -0.0045    3.1639 N   0  0  0  1  0  0  0  0  0  0  0  0
    0.4913    3.7231    3.0882 H   0  0  0  1  0  0  0  0  0  0  0  0
   -0.9425    4.1664    4.4450 C   0  0  0  1  0  0  0  0  0  0  0  0
   -0.7012   -1.3712    3.0703 C   0  0  0  1  0  0  0  0  0  0  0  0
   -0.1524    5.3767    4.9259 C   0  0  0  1  0  0  0  0  0  0  0  0
   -2.0073    3.8482    4.9729 O   0  0  0  1  0  0  0  0  0  0  0  0
   -2.1211    0.1466    3.4376 H   0  0  0  1  0  0  0  0  0  0  0  0
   -0.5138   -1.6141    2.0452 H   0  0  0  1  0  0  0  0  0  0  0  0
   -1.4348   -2.0415    3.4670 H   0  0  0  1  0  0  0  0  0  0  0  0
    0.2062   -1.4630    3.6299 H   0  0  0  1  0  0  0  0  0  0  0  0
   -0.7542    6.2564    4.8321 H   0  0  0  1  0  0  0  0  0  0  0  0
    0.7313    5.4843    4.3322 H   0  0  0  1  0  0  0  0  0  0  0  0
    0.1209    5.2394    5.9513 H   0  0  0  1  0  0  0  0  0  0  0  0
   -4.1391    3.2983    1.5955 F   0  0  0  1  0  0  0  0  0  0  0  0
   -3.3303    4.3096    1.2252 C   0  0  0  1  0  0  0  0  0  0  0  0
   -1.9735    4.0910    1.0783 C   0  0  0  1  0  0  0  0  0  0  0  0
   -1.1416    5.1304    0.6920 C   0  0  0  1  0  0  0  0  0  0  0  0
   -1.6684    6.3867    0.4589 C   0  0  0  1  0  0  0  0  0  0  0  0
   -3.0292    6.6062    0.6062 C   0  0  0  1  0  0  0  0  0  0  0  0
   -3.8584    5.5697    0.9914 C   0  0  0  1  0  0  0  0  0  0  0  0
   -1.3971    2.7194    1.3387 C   0  0  0  1  0  0  0  0  0  0  0  0
   -0.1213    4.9648    0.5776 H   0  0  0  1  0  0  0  0  0  0  0  0
   -1.0438    7.1676    0.1730 H   0  0  0  1  0  0  0  0  0  0  0  0
   -3.4261    7.5506    0.4269 H   0  0  0  1  0  0  0  0  0  0  0  0
   -4.8788    5.7352    1.1058 H   0  0  0  1  0  0  0  0  0  0  0  0
   -2.0844    1.9943    0.9555 H   0  0  0  1  0  0  0  0  0  0  0  0
   -0.4691    2.6457    0.8111 H   0  0  0  1  0  0  0  0  0  0  0  0
  1  4  1  0  0  0  0
  2  4  1  0  0  0  0
  2  5  2  0  0  0  0
  2  6  1  0  0  0  0
  3  4  1  0  0  0  0
  3  7  1  0  0  0  0
  3  8  1  0  0  0  0
  4 26  1  0  0  0  0
  6  9  1  0  0  0  0
  6 12  1  0  0  0  0
  8 10  1  0  0  0  0
  8 11  2  0  0  0  0
  9 13  1  0  0  0  0
  9 14  1  0  0  0  0
  9 15  1  0  0  0  0
 10 16  1  0  0  0  0
 10 17  1  0  0  0  0
 10 18  1  0  0  0  0
 19 20  1  0  0  0  0
 20 21  4  0  0  0  0
 20 25  4  0  0  0  0
 21 22  4  0  0  0  0
 21 26  1  0  0  0  0
 22 23  4  0  0  0  0
 22 27  1  0  0  0  0
 23 24  4  0  0  0  0
 23 28  1  0  0  0  0
 24 25  4  0  0  0  0
 24 29  1  0  0  0  0
 25 30  1  0  0  0  0
 26 31  1  0  0  0  0
 26 32  1  0  0  0  0
M  END
> <BCLConfClusterSize>
1

> <ConfClashScore>
0 

> <ConfOneFourInteractionScore>
-0.985807 

> <ConfScore>
-0.227889 

> <ConfScorePBest>
0.00695093 

> <ConfTolerance>
0.262012 

> <RosettaParamsInstructions>
M  ROOT 3
M  POLY_N_BB 3
M  POLY_CA_BB 4
M  POLY_C_BB 2
M  POLY_O_BB 5
M  POLY_IGNORE 9 10 11 12 13 14 15 16 17 18 
M  POLY_UPPER 6
M  POLY_LOWER 8
M  POLY_CHG 0
M  POLY_PROPERTIES ALPHA_AA L_AA PROTEIN AROMATIC POLYMER 
M  END

$$$$



 32 32  0  0  0  0  0  0  0  0999 V2000
   -2.0879    2.4837    3.3202 H   0  0  0  1  0  0  0  0  0  0  0  0
   -0.5996    1.0274    2.9718 C   0  0  0  1  0  0  0  0  0  0  0  0
   -0.2689    3.4612    3.3618 N   0  0  0  1  0  0  0  0  0  0  0  0
   -1.1459    2.4367    2.8148 C   0  0  0  1  0  0  0  0  0  0  0  0
   -1.3379    0.0455    2.9060 O   0  0  0  1  0  0  0  0  0  0  0  0
    0.7165    0.9352    3.1825 N   0  0  0  1  0  0  0  0  0  0  0  0
    0.2521    4.0165    2.7449 H   0  0  0  1  0  0  0  0  0  0  0  0
   -0.1492    3.6714    4.6775 C   0  0  0  1  0  0  0  0  0  0  0  0
    1.3690   -0.3306    3.4822 C   0  0  0  1  0  0  0  0  0  0  0  0
    0.7021    4.8598    5.0800 C   0  0  0  1  0  0  0  0  0  0  0  0
   -0.6881    2.9568    5.5218 O   0  0  0  1  0  0  0  0  0  0  0  0
    1.2614    1.7483    3.1335 H   0  0  0  1  0  0  0  0  0  0  0  0
    0.6738   -0.9854    3.9647 H   0  0  0  1  0  0  0  0  0  0  0  0
    2.2033   -0.1571    4.1293 H   0  0  0  1  0  0  0  0  0  0  0  0
    1.7097   -0.7800    2.5729 H   0  0  0  1  0  0  0  0  0  0  0  0
    0.9762    5.4148    4.2072 H   0  0  0  1  0  0  0  0  0  0  0  0
    1.5857    4.5140    5.5745 H   0  0  0  1  0  0  0  0  0  0  0  0
    0.1452    5.4892    5.7423 H   0  0  0  1  0  0  0  0  0  0  0  0
   -4.1398    3.3019    1.6037 F   0  0  0  1  0  0  0  0  0  0  0  0
   -3.3319    4.3114    1.2268 C   0  0  0  1  0  0  0  0  0  0  0  0
   -1.9716    4.0914    1.0765 C   0  0  0  1  0  0  0  0  0  0  0  0
   -1.1416    5.1287    0.6948 C   0  0  0  1  0  0  0  0  0  0  0  0
   -1.6705    6.3878    0.4572 C   0  0  0  1  0  0  0  0  0  0  0  0
   -3.0268    6.6073    0.6071 C   0  0  0  1  0  0  0  0  0  0  0  0
   -3.8590    5.5669    0.9899 C   0  0  0  1  0  0  0  0  0  0  0  0
   -1.3962    2.7180    1.3297 C   0  0  0  1  0  0  0  0  0  0  0  0
   -0.1204    4.9645    0.5860 H   0  0  0  1  0  0  0  0  0  0  0  0
   -1.0467    7.1674    0.1662 H   0  0  0  1  0  0  0  0  0  0  0  0
   -3.4230    7.5529    0.4327 H   0  0  0  1  0  0  0  0  0  0  0  0
   -4.8802    5.7310    1.0987 H   0  0  0  1  0  0  0  0  0  0  0  0
   -2.0822    1.9871    0.9556 H   0  0  0  1  0  0  0  0  0  0  0  0
   -0.4666    2.6364    0.8062 H   0  0  0  1  0  0  0  0  0  0  0  0
  1  4  1  0  0  0  0
  2  4  1  0  0  0  0
  2  5  2  0  0  0  0
  2  6  1  0  0  0  0
  3  4  1  0  0  0  0
  3  7  1  0  0  0  0
  3  8  1  0  0  0  0
  4 26  1  0  0  0  0
  6  9  1  0  0  0  0
  6 12  1  0  0  0  0
  8 10  1  0  0  0  0
  8 11  2  0  0  0  0
  9 13  1  0  0  0  0
  9 14  1  0  0  0  0
  9 15  1  0  0  0  0
 10 16  1  0  0  0  0
 10 17  1  0  0  0  0
 10 18  1  0  0  0  0
 19 20  1  0  0  0  0
 20 21  4  0  0  0  0
 20 25  4  0  0  0  0
 21 22  4  0  0  0  0
 21 26  1  0  0  0  0
 22 23  4  0  0  0  0
 22 27  1  0  0  0  0
 23 24  4  0  0  0  0
 23 28  1  0  0  0  0
 24 25  4  0  0  0  0
 24 29  1  0  0  0  0
 25 30  1  0  0  0  0
 26 31  1  0  0  0  0
 26 32  1  0  0  0  0
M  END
> <BCLConfClusterSize>
1

> <ConfClashScore>
0 

> <ConfOneFourInteractionScore>
-0.960318 

> <ConfScore>
-0.227434 

> <ConfScorePBest>
0.00692245 

> <ConfTolerance>
0.233892 

> <RosettaParamsInstructions>
M  ROOT 3
M  POLY_N_BB 3
M  POLY_CA_BB 4
M  POLY_C_BB 2
M  POLY_O_BB 5
M  POLY_IGNORE 9 10 11 12 13 14 15 16 17 18 
M  POLY_UPPER 6
M  POLY_LOWER 8
M  POLY_CHG 0
M  POLY_PROPERTIES ALPHA_AA L_AA PROTEIN AROMATIC POLYMER 
M  END

$$$$



 32 32  0  0  0  0  0  0  0  0999 V2000
   -1.9845    2.7918    3.3502 H   0  0  0  1  0  0  0  0  0  0  0  0
   -0.9989    0.9576    3.0714 C   0  0  0  1  0  0  0  0  0  0  0  0
    0.0316    3.2012    3.2522 N   0  0  0  1  0  0  0  0  0  0  0  0
   -1.1322    2.4443    2.8046 C   0  0  0  1  0  0  0  0  0  0  0  0
   -1.9774    0.2837    3.3908 O   0  0  0  1  0  0  0  0  0  0  0  0
    0.2164    0.4008    2.9486 N   0  0  0  1  0  0  0  0  0  0  0  0
    0.7248    3.4007    2.5888 H   0  0  0  1  0  0  0  0  0  0  0  0
    0.2256    3.6472    4.5106 C   0  0  0  1  0  0  0  0  0  0  0  0
    0.4373   -1.0279    3.1151 C   0  0  0  1  0  0  0  0  0  0  0  0
    1.4807    4.4216    4.8001 C   0  0  0  1  0  0  0  0  0  0  0  0
   -0.5991    3.4279    5.3969 O   0  0  0  1  0  0  0  0  0  0  0  0
    0.9814    0.9765    2.7395 H   0  0  0  1  0  0  0  0  0  0  0  0
   -0.3548   -1.4460    3.7005 H   0  0  0  1  0  0  0  0  0  0  0  0
    1.3711   -1.1886    3.6123 H   0  0  0  1  0  0  0  0  0  0  0  0
    0.4581   -1.4997    2.1549 H   0  0  0  1  0  0  0  0  0  0  0  0
    1.4880    5.3201    4.2192 H   0  0  0  1  0  0  0  0  0  0  0  0
    2.3331    3.8265    4.5469 H   0  0  0  1  0  0  0  0  0  0  0  0
    1.5145    4.6696    5.8405 H   0  0  0  1  0  0  0  0  0  0  0  0
   -4.1397    3.3020    1.6037 F   0  0  0  1  0  0  0  0  0  0  0  0
   -3.3318    4.3115    1.2268 C   0  0  0  1  0  0  0  0  0  0  0  0
   -1.9715    4.0913    1.0765 C   0  0  0  1  0  0  0  0  0  0  0  0
   -1.1417    5.1287    0.6949 C   0  0  0  1  0  0  0  0  0  0  0  0
   -1.6705    6.3878    0.4572 C   0  0  0  1  0  0  0  0  0  0  0  0
   -3.0268    6.6072    0.6071 C   0  0  0  1  0  0  0  0  0  0  0  0
   -3.8591    5.5669    0.9899 C   0  0  0  1  0  0  0  0  0  0  0  0
   -1.3961    2.7179    1.3298 C   0  0  0  1  0  0  0  0  0  0  0  0
   -0.1205    4.9646    0.5860 H   0  0  0  1  0  0  0  0  0  0  0  0
   -1.0466    7.1674    0.1662 H   0  0  0  1  0  0  0  0  0  0  0  0
   -3.4229    7.5528    0.4327 H   0  0  0  1  0  0  0  0  0  0  0  0
   -4.8803    5.7311    1.0987 H   0  0  0  1  0  0  0  0  0  0  0  0
   -2.0874    1.9867    0.9661 H   0  0  0  1  0  0  0  0  0  0  0  0
   -0.4722    2.6321    0.7968 H   0  0  0  1  0  0  0  0  0  0  0  0
  1  4  1  0  0  0  0
  2  4  1  0  0  0  0
  2  5  2  0  0  0  0
  2  6  1  0  0  0  0
  3  4  1  0  0  0  0
  3  7  1  0  0  0  0
  3  8  1  0  0  0  0
  4 26  1  0  0  0  0
  6  9  1  0  0  0  0
  6 12  1  0  0  0  0
  8 10  1  0  0  0  0
  8 11  2  0  0  0  0
  9 13  1  0  0  0  0
  9 14  1  0  0  0  0
  9 15  1  0  0  0  0
 10 16  1  0  0  0  0
 10 17  1  0  0  0  0
 10 18  1  0  0  0  0
 19 20  1  0  0  0  0
 20 21  4  0  0  0  0
 20 25  4  0  0  0  0
 21 22  4  0  0  0  0
 21 26  1  0  0  0  0
 22 23  4  0  0  0  0
 22 27  1  0  0  0  0
 23 24  4  0  0  0  0
 23 28  1  0  0  0  0
 24 25  4  0  0  0  0
 24 29  1  0  0  0  0
 25 30  1  0  0  0  0
 26 31  1  0  0  0  0
 26 32  1  0  0  0  0
M  END
> <BCLConfClusterSize>
1

> <ConfClashScore>
0 

> <ConfOneFourInteractionScore>
-0.944706 

> <ConfScore>
-0.222171 

> <ConfScorePBest>
0.00689397 

> <ConfTolerance>
0.273313 

> <RosettaParamsInstructions>
M  ROOT 3
M  POLY_N_BB 3
M  POLY_CA_BB 4
M  POLY_C_BB 2
M  POLY_O_BB 5
M  POLY_IGNORE 9 10 11 12 13 14 15 16 17 18 
M  POLY_UPPER 6
M  POLY_LOWER 8
M  POLY_CHG 0
M  POLY_PROPERTIES ALPHA_AA L_AA PROTEIN AROMATIC POLYMER 
M  END

$$$$



 32 32  0  0  0  0  0  0  0  0999 V2000
   -2.5053    1.6217   -0.0831 H   0  0  0  1  0  0  0  0  0  0  0  0
   -0.7760    2.3050   -1.0611 C   0  0  0  1  0  0  0  0  0  0  0  0
   -0.9447    0.4455    0.5601 N   0  0  0  1  0  0  0  0  0  0  0  0
   -1.4712    1.7430    0.1636 C   0  0  0  1  0  0  0  0  0  0  0  0
   -1.3680    3.0361   -1.8508 O   0  0  0  1  0  0  0  0  0  0  0  0
    0.5104    1.9512   -1.2157 N   0  0  0  1  0  0  0  0  0  0  0  0
   -0.4644    0.3699    1.4110 H   0  0  0  1  0  0  0  0  0  0  0  0
   -1.0947   -0.6555   -0.2019 C   0  0  0  1  0  0  0  0  0  0  0  0
    1.3038    2.3832   -2.3566 C   0  0  0  1  0  0  0  0  0  0  0  0
   -0.4987   -1.9137    0.4163 C   0  0  0  1  0  0  0  0  0  0  0  0
   -1.6543   -0.6780   -1.2973 O   0  0  0  1  0  0  0  0  0  0  0  0
    0.9293    1.3822   -0.5365 H   0  0  0  1  0  0  0  0  0  0  0  0
    0.8975    3.2912   -2.7509 H   0  0  0  1  0  0  0  0  0  0  0  0
    1.2833    1.6259   -3.1122 H   0  0  0  1  0  0  0  0  0  0  0  0
    2.3139    2.5502   -2.0456 H   0  0  0  1  0  0  0  0  0  0  0  0
   -0.0026   -2.4834   -0.3415 H   0  0  0  1  0  0  0  0  0  0  0  0
   -1.2800   -2.5020    0.8504 H   0  0  0  1  0  0  0  0  0  0  0  0
    0.2051   -1.6395    1.1742 H   0  0  0  1  0  0  0  0  0  0  0  0
   -4.1391    3.2985    1.5955 F   0  0  0  1  0  0  0  0  0  0  0  0
   -3.3302    4.3097    1.2252 C   0  0  0  1  0  0  0  0  0  0  0  0
   -1.9734    4.0909    1.0783 C   0  0  0  1  0  0  0  0  0  0  0  0
   -1.1417    5.1304    0.6920 C   0  0  0  1  0  0  0  0  0  0  0  0
   -1.6684    6.3868    0.4589 C   0  0  0  1  0  0  0  0  0  0  0  0
   -3.0292    6.6060    0.6062 C   0  0  0  1  0  0  0  0  0  0  0  0
   -3.8585    5.5697    0.9914 C   0  0  0  1  0  0  0  0  0  0  0  0
   -1.3970    2.7192    1.3387 C   0  0  0  1  0  0  0  0  0  0  0  0
   -0.1214    4.9649    0.5776 H   0  0  0  1  0  0  0  0  0  0  0  0
   -1.0438    7.1677    0.1729 H   0  0  0  1  0  0  0  0  0  0  0  0
   -3.4261    7.5504    0.4269 H   0  0  0  1  0  0  0  0  0  0  0  0
   -4.8789    5.7352    1.1058 H   0  0  0  1  0  0  0  0  0  0  0  0
   -0.3673    2.8388    1.6040 H   0  0  0  1  0  0  0  0  0  0  0  0
   -1.9297    2.2879    2.1603 H   0  0  0  1  0  0  0  0  0  0  0  0
  1  4  1  0  0  0  0
  2  4  1  0  0  0  0
  2  5  2  0  0  0  0
  2  6  1  0  0  0  0
  3  4  1  0  0  0  0
  3  7  1  0  0  0  0
  3  8  1  0  0  0  0
  4 26  1  0  0  0  0
  6  9  1  0  0  0  0
  6 12  1  0  0  0  0
  8 10  1  0  0  0  0
  8 11  2  0  0  0  0
  9 13  1  0  0  0  0
  9 14  1  0  0  0  0
  9 15  1  0  0  0  0
 10 16  1  0  0  0  0
 10 17  1  0  0  0  0
 10 18  1  0  0  0  0
 19 20  1  0  0  0  0
 20 21  4  0  0  0  0
 20 25  4  0  0  0  0
 21 22  4  0  0  0  0
 21 26  1  0  0  0  0
 22 23  4  0  0  0  0
 22 27  1  0  0  0  0
 23 24  4  0  0  0  0
 23 28  1  0  0  0  0
 24 25  4  0  0  0  0
 24 29  1  0  0  0  0
 25 30  1  0  0  0  0
 26 31  1  0  0  0  0
 26 32  1  0  0  0  0
M  END
> <BCLConfClusterSize>
1

> <ConfClashScore>
0 

> <ConfOneFourInteractionScore>
-0.960318 

> <ConfScore>
-0.221814 

> <ConfScorePBest>
0.00686549 

> <ConfTolerance>
0.240092 

> <RosettaParamsInstructions>
M  ROOT 3
M  POLY_N_BB 3
M  POLY_CA_BB 4
M  POLY_C_BB 2
M  POLY_O_BB 5
M  POLY_IGNORE 9 10 11 12 13 14 15 16 17 18 
M  POLY_UPPER 6
M  POLY_LOWER 8
M  POLY_CHG 0
M  POLY_PROPERTIES ALPHA_AA L_AA PROTEIN AROMATIC POLYMER 
M  END

$$$$



 32 32  0  0  0  0  0  0  0  0999 V2000
   -1.9602    2.6778    3.3741 H   0  0  0  1  0  0  0  0  0  0  0  0
   -0.6974    1.0276    3.0634 C   0  0  0  1  0  0  0  0  0  0  0  0
   -0.0384    3.4032    3.2562 N   0  0  0  1  0  0  0  0  0  0  0  0
   -1.0701    2.4763    2.8154 C   0  0  0  1  0  0  0  0  0  0  0  0
    0.4733    0.6562    2.9920 O   0  0  0  1  0  0  0  0  0  0  0  0
   -1.6753    0.1705    3.3605 N   0  0  0  1  0  0  0  0  0  0  0  0
    0.5981    3.7707    2.6079 H   0  0  0  1  0  0  0  0  0  0  0  0
    0.0429    3.7541    4.5427 C   0  0  0  1  0  0  0  0  0  0  0  0
   -1.5091   -1.2690    3.4956 C   0  0  0  1  0  0  0  0  0  0  0  0
    1.1605    4.7171    4.8935 C   0  0  0  1  0  0  0  0  0  0  0  0
   -0.7304    3.3332    5.4021 O   0  0  0  1  0  0  0  0  0  0  0  0
   -2.5734    0.5377    3.4982 H   0  0  0  1  0  0  0  0  0  0  0  0
   -0.8256   -1.6210    2.7514 H   0  0  0  1  0  0  0  0  0  0  0  0
   -2.4557   -1.7508    3.3665 H   0  0  0  1  0  0  0  0  0  0  0  0
   -1.1237   -1.4935    4.4682 H   0  0  0  1  0  0  0  0  0  0  0  0
    2.1038    4.2237    4.7863 H   0  0  0  1  0  0  0  0  0  0  0  0
    1.0432    5.0460    5.9049 H   0  0  0  1  0  0  0  0  0  0  0  0
    1.1229    5.5610    4.2368 H   0  0  0  1  0  0  0  0  0  0  0  0
   -4.1392    3.2983    1.5955 F   0  0  0  1  0  0  0  0  0  0  0  0
   -3.3303    4.3095    1.2252 C   0  0  0  1  0  0  0  0  0  0  0  0
   -1.9735    4.0910    1.0783 C   0  0  0  1  0  0  0  0  0  0  0  0
   -1.1417    5.1304    0.6920 C   0  0  0  1  0  0  0  0  0  0  0  0
   -1.6684    6.3867    0.4589 C   0  0  0  1  0  0  0  0  0  0  0  0
   -3.0292    6.6061    0.6062 C   0  0  0  1  0  0  0  0  0  0  0  0
   -3.8585    5.5697    0.9914 C   0  0  0  1  0  0  0  0  0  0  0  0
   -1.3970    2.7194    1.3387 C   0  0  0  1  0  0  0  0  0  0  0  0
   -0.1213    4.9649    0.5776 H   0  0  0  1  0  0  0  0  0  0  0  0
   -1.0438    7.1675    0.1730 H   0  0  0  1  0  0  0  0  0  0  0  0
   -3.4261    7.5506    0.4269 H   0  0  0  1  0  0  0  0  0  0  0  0
   -4.8788    5.7352    1.1058 H   0  0  0  1  0  0  0  0  0  0  0  0
   -2.1081    1.9853    1.0220 H   0  0  0  1  0  0  0  0  0  0  0  0
   -0.4974    2.6143    0.7690 H   0  0  0  1  0  0  0  0  0  0  0  0
  1  4  1  0  0  0  0
  2  4  1  0  0  0  0
  2  5  2  0  0  0  0
  2  6  1  0  0  0  0
  3  4  1  0  0  0  0
  3  7  1  0  0  0  0
  3  8  1  0  0  0  0
  4 26  1  0  0  0  0
  6  9  1  0  0  0  0
  6 12  1  0  0  0  0
  8 10  1  0  0  0  0
  8 11  2  0  0  0  0
  9 13  1  0  0  0  0
  9 14  1  0  0  0  0
  9 15  1  0  0  0  0
 10 16  1  0  0  0  0
 10 17  1  0  0  0  0
 10 18  1  0  0  0  0
 19 20  1  0  0  0  0
 20 21  4  0  0  0  0
 20 25  4  0  0  0  0
 21 22  4  0  0  0  0
 21 26  1  0  0  0  0
 22 23  4  0  0  0  0
 22 27  1  0  0  0  0
 23 24  4  0  0  0  0
 23 28  1  0  0  0  0
 24 25  4  0  0  0  0
 24 29  1  0  0  0  0
 25 30  1  0  0  0  0
 26 31  1  0  0  0  0
 26 32  1  0  0  0  0
M  END
> <BCLConfClusterSize>
1

> <ConfClashScore>
0 

> <ConfOneFourInteractionScore>
-0.985807 

> <ConfScore>
-0.219951 

> <ConfScorePBest>
0.00683701 

> <ConfTolerance>
0.198051 

> <RosettaParamsInstructions>
M  ROOT 3
M  POLY_N_BB 3
M  POLY_CA_BB 4
M  POLY_C_BB 2
M  POLY_O_BB 5
M  POLY_IGNORE 9 10 11 12 13 14 15 16 17 18 
M  POLY_UPPER 6
M  POLY_LOWER 8
M  POLY_CHG 0
M  POLY_PROPERTIES ALPHA_AA L_AA PROTEIN AROMATIC POLYMER 
M  END

$$$$



 32 32  0  0  0  0  0  0  0  0999 V2000
   -0.8057    2.2935   -0.6451 H   0  0  0  1  0  0  0  0  0  0  0  0
   -0.4559    0.5640    0.5128 C   0  0  0  1  0  0  0  0  0  0  0  0
   -2.6145    1.3569   -0.2929 N   0  0  0  1  0  0  0  0  0  0  0  0
   -1.2941    1.7755    0.1536 C   0  0  0  1  0  0  0  0  0  0  0  0
    0.7731    0.6188    0.5249 O   0  0  0  1  0  0  0  0  0  0  0  0
   -1.1362   -0.5438    0.8090 N   0  0  0  1  0  0  0  0  0  0  0  0
   -3.3168    1.2735    0.3855 H   0  0  0  1  0  0  0  0  0  0  0  0
   -2.9445    1.0750   -1.5703 C   0  0  0  1  0  0  0  0  0  0  0  0
   -0.4748   -1.7938    1.1522 C   0  0  0  1  0  0  0  0  0  0  0  0
   -4.3931    0.7483   -1.8769 C   0  0  0  1  0  0  0  0  0  0  0  0
   -2.0969    1.0822   -2.4621 O   0  0  0  1  0  0  0  0  0  0  0  0
   -2.1157   -0.5153    0.7951 H   0  0  0  1  0  0  0  0  0  0  0  0
    0.3949   -1.5880    1.7405 H   0  0  0  1  0  0  0  0  0  0  0  0
   -0.1866   -2.3024    0.2559 H   0  0  0  1  0  0  0  0  0  0  0  0
   -1.1463   -2.4103    1.7124 H   0  0  0  1  0  0  0  0  0  0  0  0
   -4.4993    0.5417   -2.9214 H   0  0  0  1  0  0  0  0  0  0  0  0
   -5.0099    1.5822   -1.6140 H   0  0  0  1  0  0  0  0  0  0  0  0
   -4.6923   -0.1095   -1.3117 H   0  0  0  1  0  0  0  0  0  0  0  0
   -4.1397    3.3020    1.6037 F   0  0  0  1  0  0  0  0  0  0  0  0
   -3.3318    4.3116    1.2268 C   0  0  0  1  0  0  0  0  0  0  0  0
   -1.9715    4.0913    1.0765 C   0  0  0  1  0  0  0  0  0  0  0  0
   -1.1417    5.1287    0.6949 C   0  0  0  1  0  0  0  0  0  0  0  0
   -1.6704    6.3879    0.4572 C   0  0  0  1  0  0  0  0  0  0  0  0
   -3.0268    6.6072    0.6071 C   0  0  0  1  0  0  0  0  0  0  0  0
   -3.8591    5.5669    0.9899 C   0  0  0  1  0  0  0  0  0  0  0  0
   -1.3962    2.7179    1.3298 C   0  0  0  1  0  0  0  0  0  0  0  0
   -0.1205    4.9645    0.5860 H   0  0  0  1  0  0  0  0  0  0  0  0
   -1.0466    7.1674    0.1661 H   0  0  0  1  0  0  0  0  0  0  0  0
   -3.4230    7.5528    0.4327 H   0  0  0  1  0  0  0  0  0  0  0  0
   -4.8803    5.7310    1.0988 H   0  0  0  1  0  0  0  0  0  0  0  0
   -0.4087    2.8514    1.7197 H   0  0  0  1  0  0  0  0  0  0  0  0
   -2.0103    2.2445    2.0670 H   0  0  0  1  0  0  0  0  0  0  0  0
  1  4  1  0  0  0  0
  2  4  1  0  0  0  0
  2  5  2  0  0  0  0
  2  6  1  0  0  0  0
  3  4  1  0  0  0  0
  3  7  1  0  0  0  0
  3  8  1  0  0  0  0
  4 26  1  0  0  0  0
  6  9  1  0  0  0  0
  6 12  1  0  0  0  0
  8 10  1  0  0  0  0
  8 11  2  0  0  0  0
  9 13  1  0  0  0  0
  9 14  1  0  0  0  0
  9 15  1  0  0  0  0
 10 16  1  0  0  0  0
 10 17  1  0  0  0  0
 10 18  1  0  0  0  0
 19 20  1  0  0  0  0
 20 21  4  0  0  0  0
 20 25  4  0  0  0  0
 21 22  4  0  0  0  0
 21 26  1  0  0  0  0
 22 23  4  0  0  0  0
 22 27  1  0  0  0  0
 23 24  4  0  0  0  0
 23 28  1  0  0  0  0
 24 25  4  0  0  0  0
 24 29  1  0  0  0  0
 25 30  1  0  0  0  0
 26 31  1  0  0  0  0
 26 32  1  0  0  0  0
M  END
> <BCLConfClusterSize>
1

> <ConfClashScore>
0 

> <ConfOneFourInteractionScore>
-0.956443 

> <ConfScore>
-0.219647 

> <ConfScorePBest>
0.00680853 

> <ConfTolerance>
0.243647 

> <RosettaParamsInstructions>
M  ROOT 3
M  POLY_N_BB 3
M  POLY_CA_BB 4
M  POLY_C_BB 2
M  POLY_O_BB 5
M  POLY_IGNORE 9 10 11 12 13 14 15 16 17 18 
M  POLY_UPPER 6
M  POLY_LOWER 8
M  POLY_CHG 0
M  POLY_PROPERTIES ALPHA_AA L_AA PROTEIN AROMATIC POLYMER 
M  END

$$$$



 32 32  0  0  0  0  0  0  0  0999 V2000
   -0.2998    3.1355    3.0857 H   0  0  0  1  0  0  0  0  0  0  0  0
   -2.2154    2.3974    3.6378 C   0  0  0  1  0  0  0  0  0  0  0  0
   -0.3321    1.0822    2.7778 N   0  0  0  1  0  0  0  0  0  0  0  0
   -0.9807    2.3845    2.7433 C   0  0  0  1  0  0  0  0  0  0  0  0
   -2.6210    3.4440    4.1366 O   0  0  0  1  0  0  0  0  0  0  0  0
   -2.8409    1.2383    3.8619 N   0  0  0  1  0  0  0  0  0  0  0  0
   -0.3151    0.5229    1.9733 H   0  0  0  1  0  0  0  0  0  0  0  0
    0.2620    0.6311    3.9466 C   0  0  0  1  0  0  0  0  0  0  0  0
   -4.0209    1.1426    4.7083 C   0  0  0  1  0  0  0  0  0  0  0  0
    0.8429   -0.7546    3.9831 C   0  0  0  1  0  0  0  0  0  0  0  0
    0.2934    1.3763    4.9089 O   0  0  0  1  0  0  0  0  0  0  0  0
   -2.4931    0.4242    3.4416 H   0  0  0  1  0  0  0  0  0  0  0  0
   -3.9794    1.8974    5.4656 H   0  0  0  1  0  0  0  0  0  0  0  0
   -4.0520    0.1772    5.1686 H   0  0  0  1  0  0  0  0  0  0  0  0
   -4.8989    1.2829    4.1130 H   0  0  0  1  0  0  0  0  0  0  0  0
    1.9072   -0.6934    4.0747 H   0  0  0  1  0  0  0  0  0  0  0  0
    0.5920   -1.2701    3.0796 H   0  0  0  1  0  0  0  0  0  0  0  0
    0.4430   -1.2867    4.8208 H   0  0  0  1  0  0  0  0  0  0  0  0
   -4.1397    3.3019    1.6037 F   0  0  0  1  0  0  0  0  0  0  0  0
   -3.3319    4.3114    1.2268 C   0  0  0  1  0  0  0  0  0  0  0  0
   -1.9715    4.0915    1.0765 C   0  0  0  1  0  0  0  0  0  0  0  0
   -1.1416    5.1287    0.6948 C   0  0  0  1  0  0  0  0  0  0  0  0
   -1.6705    6.3877    0.4572 C   0  0  0  1  0  0  0  0  0  0  0  0
   -3.0268    6.6073    0.6071 C   0  0  0  1  0  0  0  0  0  0  0  0
   -3.8591    5.5669    0.9899 C   0  0  0  1  0  0  0  0  0  0  0  0
   -1.3961    2.7181    1.3297 C   0  0  0  1  0  0  0  0  0  0  0  0
   -0.1204    4.9645    0.5860 H   0  0  0  1  0  0  0  0  0  0  0  0
   -1.0466    7.1673    0.1662 H   0  0  0  1  0  0  0  0  0  0  0  0
   -3.4230    7.5530    0.4327 H   0  0  0  1  0  0  0  0  0  0  0  0
   -4.8802    5.7310    1.0988 H   0  0  0  1  0  0  0  0  0  0  0  0
   -2.1351    2.0022    1.0358 H   0  0  0  1  0  0  0  0  0  0  0  0
   -0.5310    2.6139    0.7087 H   0  0  0  1  0  0  0  0  0  0  0  0
  1  4  1  0  0  0  0
  2  4  1  0  0  0  0
  2  5  2  0  0  0  0
  2  6  1  0  0  0  0
  3  4  1  0  0  0  0
  3  7  1  0  0  0  0
  3  8  1  0  0  0  0
  4 26  1  0  0  0  0
  6  9  1  0  0  0  0
  6 12  1  0  0  0  0
  8 10  1  0  0  0  0
  8 11  2  0  0  0  0
  9 13  1  0  0  0  0
  9 14  1  0  0  0  0
  9 15  1  0  0  0  0
 10 16  1  0  0  0  0
 10 17  1  0  0  0  0
 10 18  1  0  0  0  0
 19 20  1  0  0  0  0
 20 21  4  0  0  0  0
 20 25  4  0  0  0  0
 21 22  4  0  0  0  0
 21 26  1  0  0  0  0
 22 23  4  0  0  0  0
 22 27  1  0  0  0  0
 23 24  4  0  0  0  0
 23 28  1  0  0  0  0
 24 25  4  0  0  0  0
 24 29  1  0  0  0  0
 25 30  1  0  0  0  0
 26 31  1  0  0  0  0
 26 32  1  0  0  0  0
M  END
> <BCLConfClusterSize>
1

> <ConfClashScore>
0 

> <ConfOneFourInteractionScore>
-0.960318 

> <ConfScore>
-0.216182 

> <ConfScorePBest>
0.00678005 

> <ConfTolerance>
0.219679 

> <RosettaParamsInstructions>
M  ROOT 3
M  POLY_N_BB 3
M  POLY_CA_BB 4
M  POLY_C_BB 2
M  POLY_O_BB 5
M  POLY_IGNORE 9 10 11 12 13 14 15 16 17 18 
M  POLY_UPPER 6
M  POLY_LOWER 8
M  POLY_CHG 0
M  POLY_PROPERTIES ALPHA_AA L_AA PROTEIN AROMATIC POLYMER 
M  END

$$$$



 32 32  0  0  0  0  0  0  0  0999 V2000
   -1.8801    2.5332    3.3775 H   0  0  0  1  0  0  0  0  0  0  0  0
   -0.4945    1.0001    2.9121 C   0  0  0  1  0  0  0  0  0  0  0  0
    0.0048    3.3716    3.2318 N   0  0  0  1  0  0  0  0  0  0  0  0
   -1.0051    2.4309    2.7702 C   0  0  0  1  0  0  0  0  0  0  0  0
    0.4296    0.5691    2.2467 O   0  0  0  1  0  0  0  0  0  0  0  0
   -1.0787    0.1869    3.7966 N   0  0  0  1  0  0  0  0  0  0  0  0
    0.8630    3.3832    2.7589 H   0  0  0  1  0  0  0  0  0  0  0  0
   -0.1497    4.2189    4.2496 C   0  0  0  1  0  0  0  0  0  0  0  0
   -0.5308   -1.1189    4.1322 C   0  0  0  1  0  0  0  0  0  0  0  0
    1.0902    4.9897    4.6591 C   0  0  0  1  0  0  0  0  0  0  0  0
   -1.2219    4.3785    4.8316 O   0  0  0  1  0  0  0  0  0  0  0  0
   -1.9049    0.4799    4.2347 H   0  0  0  1  0  0  0  0  0  0  0  0
    0.5334   -1.0988    4.0221 H   0  0  0  1  0  0  0  0  0  0  0  0
   -0.9430   -1.8575    3.4769 H   0  0  0  1  0  0  0  0  0  0  0  0
   -0.7799   -1.3605    5.1444 H   0  0  0  1  0  0  0  0  0  0  0  0
    1.3123    5.7288    3.9180 H   0  0  0  1  0  0  0  0  0  0  0  0
    1.9159    4.3151    4.7483 H   0  0  0  1  0  0  0  0  0  0  0  0
    0.9173    5.4690    5.6000 H   0  0  0  1  0  0  0  0  0  0  0  0
   -4.1397    3.3020    1.6037 F   0  0  0  1  0  0  0  0  0  0  0  0
   -3.3318    4.3115    1.2268 C   0  0  0  1  0  0  0  0  0  0  0  0
   -1.9715    4.0914    1.0765 C   0  0  0  1  0  0  0  0  0  0  0  0
   -1.1417    5.1287    0.6949 C   0  0  0  1  0  0  0  0  0  0  0  0
   -1.6704    6.3879    0.4572 C   0  0  0  1  0  0  0  0  0  0  0  0
   -3.0268    6.6072    0.6071 C   0  0  0  1  0  0  0  0  0  0  0  0
   -3.8592    5.5669    0.9899 C   0  0  0  1  0  0  0  0  0  0  0  0
   -1.3961    2.7179    1.3298 C   0  0  0  1  0  0  0  0  0  0  0  0
   -0.1206    4.9645    0.5860 H   0  0  0  1  0  0  0  0  0  0  0  0
   -1.0466    7.1674    0.1662 H   0  0  0  1  0  0  0  0  0  0  0  0
   -3.4229    7.5529    0.4327 H   0  0  0  1  0  0  0  0  0  0  0  0
   -4.8803    5.7311    1.0988 H   0  0  0  1  0  0  0  0  0  0  0  0
   -2.1274    1.9943    1.0358 H   0  0  0  1  0  0  0  0  0  0  0  0
   -0.5219    2.6092    0.7225 H   0  0  0  1  0  0  0  0  0  0  0  0
  1  4  1  0  0  0  0
  2  4  1  0  0  0  0
  2  5  2  0  0  0  0
  2  6  1  0  0  0  0
  3  4  1  0  0  0  0
  3  7  1  0  0  0  0
  3  8  1  0  0  0  0
  4 26  1  0  0  0  0
  6  9  1  0  0  0  0
  6 12  1  0  0  0  0
  8 10  1  0  0  0  0
  8 11  2  0  0  0  0
  9 13  1  0  0  0  0
  9 14  1  0  0  0  0
  9 15  1  0  0  0  0
 10 16  1  0  0  0  0
 10 17  1  0  0  0  0
 10 18  1  0  0  0  0
 19 20  1  0  0  0  0
 20 21  4  0  0  0  0
 20 25  4  0  0  0  0
 21 22  4  0  0  0  0
 21 26  1  0  0  0  0
 22 23  4  0  0  0  0
 22 27  1  0  0  0  0
 23 24  4  0  0  0  0
 23 28  1  0  0  0  0
 24 25  4  0  0  0  0
 24 29  1  0  0  0  0
 25 30  1  0  0  0  0
 26 31  1  0  0  0  0
 26 32  1  0  0  0  0
M  END
> <BCLConfClusterSize>
1

> <ConfClashScore>
0 

> <ConfOneFourInteractionScore>
-0.98383 

> <ConfScore>
-0.210108 

> <ConfScorePBest>
0.00675157 

> <ConfTolerance>
0.230038 

> <RosettaParamsInstructions>
M  ROOT 3
M  POLY_N_BB 3
M  POLY_CA_BB 4
M  POLY_C_BB 2
M  POLY_O_BB 5
M  POLY_IGNORE 9 10 11 12 13 14 15 16 17 18 
M  POLY_UPPER 6
M  POLY_LOWER 8
M  POLY_CHG 0
M  POLY_PROPERTIES ALPHA_AA L_AA PROTEIN AROMATIC POLYMER 
M  END

$$$$



 32 32  0  0  0  0  0  0  0  0999 V2000
   -1.2687    2.2395   -0.7253 H   0  0  0  1  0  0  0  0  0  0  0  0
   -0.7474    0.4978    0.3568 C   0  0  0  1  0  0  0  0  0  0  0  0
   -2.9970    1.3872    0.0250 N   0  0  0  1  0  0  0  0  0  0  0  0
   -1.5945    1.7486    0.1679 C   0  0  0  1  0  0  0  0  0  0  0  0
   -1.1904   -0.4906    0.9357 O   0  0  0  1  0  0  0  0  0  0  0  0
    0.4899    0.5537   -0.1441 N   0  0  0  1  0  0  0  0  0  0  0  0
   -3.4614    0.9307    0.7574 H   0  0  0  1  0  0  0  0  0  0  0  0
   -3.6528    1.6765   -1.1025 C   0  0  0  1  0  0  0  0  0  0  0  0
    1.3885   -0.5909   -0.1257 C   0  0  0  1  0  0  0  0  0  0  0  0
   -5.1087    1.2549   -1.1445 C   0  0  0  1  0  0  0  0  0  0  0  0
   -3.1258    2.2478   -2.0562 O   0  0  0  1  0  0  0  0  0  0  0  0
    0.8033    1.3948   -0.5377 H   0  0  0  1  0  0  0  0  0  0  0  0
    1.6870   -0.8268   -1.1258 H   0  0  0  1  0  0  0  0  0  0  0  0
    0.8856   -1.4319    0.3039 H   0  0  0  1  0  0  0  0  0  0  0  0
    2.2536   -0.3554    0.4582 H   0  0  0  1  0  0  0  0  0  0  0  0
   -5.1917    0.2282   -0.8547 H   0  0  0  1  0  0  0  0  0  0  0  0
   -5.4865    1.3764   -2.1381 H   0  0  0  1  0  0  0  0  0  0  0  0
   -5.6752    1.8625   -0.4701 H   0  0  0  1  0  0  0  0  0  0  0  0
   -4.1392    3.2988    1.5954 F   0  0  0  1  0  0  0  0  0  0  0  0
   -3.3303    4.3100    1.2251 C   0  0  0  1  0  0  0  0  0  0  0  0
   -1.9736    4.0912    1.0782 C   0  0  0  1  0  0  0  0  0  0  0  0
   -1.1419    5.1307    0.6919 C   0  0  0  1  0  0  0  0  0  0  0  0
   -1.6685    6.3872    0.4588 C   0  0  0  1  0  0  0  0  0  0  0  0
   -3.0293    6.6064    0.6062 C   0  0  0  1  0  0  0  0  0  0  0  0
   -3.8587    5.5700    0.9913 C   0  0  0  1  0  0  0  0  0  0  0  0
   -1.3954    2.7156    1.3394 C   0  0  0  1  0  0  0  0  0  0  0  0
   -0.1216    4.9652    0.5775 H   0  0  0  1  0  0  0  0  0  0  0  0
   -1.0439    7.1680    0.1729 H   0  0  0  1  0  0  0  0  0  0  0  0
   -3.4262    7.5508    0.4269 H   0  0  0  1  0  0  0  0  0  0  0  0
   -4.8790    5.7355    1.1058 H   0  0  0  1  0  0  0  0  0  0  0  0
   -0.3462    2.8164    1.5233 H   0  0  0  1  0  0  0  0  0  0  0  0
   -1.8718    2.3046    2.2049 H   0  0  0  1  0  0  0  0  0  0  0  0
  1  4  1  0  0  0  0
  2  4  1  0  0  0  0
  2  5  2  0  0  0  0
  2  6  1  0  0  0  0
  3  4  1  0  0  0  0
  3  7  1  0  0  0  0
  3  8  1  0  0  0  0
  4 26  1  0  0  0  0
  6  9  1  0  0  0  0
  6 12  1  0  0  0  0
  8 10  1  0  0  0  0
  8 11  2  0  0  0  0
  9 13  1  0  0  0  0
  9 14  1  0  0  0  0
  9 15  1  0  0  0  0
 10 16  1  0  0  0  0
 10 17  1  0  0  0  0
 10 18  1  0  0  0  0
 19 20  1  0  0  0  0
 20 21  4  0  0  0  0
 20 25  4  0  0  0  0
 21 22  4  0  0  0  0
 21 26  1  0  0  0  0
 22 23  4  0  0  0  0
 22 27  1  0  0  0  0
 23 24  4  0  0  0  0
 23 28  1  0  0  0  0
 24 25  4  0  0  0  0
 24 29  1  0  0  0  0
 25 30  1  0  0  0  0
 26 31  1  0  0  0  0
 26 32  1  0  0  0  0
M  END
> <BCLConfClusterSize>
1

> <ConfClashScore>
0 

> <ConfOneFourInteractionScore>
-0.982823 

> <ConfScore>
-0.206977 

> <ConfScorePBest>
0.00672309 

> <ConfTolerance>
0.236198 

> <RosettaParamsInstructions>
M  ROOT 3
M  POLY_N_BB 3
M  POLY_CA_BB 4
M  POLY_C_BB 2
M  POLY_O_BB 5
M  POLY_IGNORE 9 10 11 12 13 14 15 16 17 18 
M  POLY_UPPER 6
M  POLY_LOWER 8
M  POLY_CHG 0
M  POLY_PROPERTIES ALPHA_AA L_AA PROTEIN AROMATIC POLYMER 
M  END

$$$$



 32 32  0  0  0  0  0  0  0  0999 V2000
   -1.3172    2.9945    3.4286 H   0  0  0  1  0  0  0  0  0  0  0  0
   -0.5709    1.0716    2.9908 C   0  0  0  1  0  0  0  0  0  0  0  0
    0.5796    3.2474    2.6505 N   0  0  0  1  0  0  0  0  0  0  0  0
   -0.6981    2.5497    2.6778 C   0  0  0  1  0  0  0  0  0  0  0  0
   -1.4120    0.4983    3.6820 O   0  0  0  1  0  0  0  0  0  0  0  0
    0.4798    0.4125    2.4942 N   0  0  0  1  0  0  0  0  0  0  0  0
    0.7931    3.8133    1.8794 H   0  0  0  1  0  0  0  0  0  0  0  0
    1.4797    3.1420    3.6500 C   0  0  0  1  0  0  0  0  0  0  0  0
    0.6828   -1.0106    2.7210 C   0  0  0  1  0  0  0  0  0  0  0  0
    2.7797    3.9028    3.5189 C   0  0  0  1  0  0  0  0  0  0  0  0
    1.2519    2.4479    4.6399 O   0  0  0  1  0  0  0  0  0  0  0  0
    1.1366    0.9045    1.9586 H   0  0  0  1  0  0  0  0  0  0  0  0
   -0.1514   -1.4090    3.2598 H   0  0  0  1  0  0  0  0  0  0  0  0
    1.5772   -1.1568    3.2899 H   0  0  0  1  0  0  0  0  0  0  0  0
    0.7720   -1.5123    1.7802 H   0  0  0  1  0  0  0  0  0  0  0  0
    3.5108    3.2817    3.0450 H   0  0  0  1  0  0  0  0  0  0  0  0
    3.1274    4.1845    4.4909 H   0  0  0  1  0  0  0  0  0  0  0  0
    2.6209    4.7807    2.9281 H   0  0  0  1  0  0  0  0  0  0  0  0
   -4.1391    3.2984    1.5955 F   0  0  0  1  0  0  0  0  0  0  0  0
   -3.3302    4.3096    1.2252 C   0  0  0  1  0  0  0  0  0  0  0  0
   -1.9734    4.0909    1.0783 C   0  0  0  1  0  0  0  0  0  0  0  0
   -1.1418    5.1304    0.6920 C   0  0  0  1  0  0  0  0  0  0  0  0
   -1.6684    6.3868    0.4589 C   0  0  0  1  0  0  0  0  0  0  0  0
   -3.0291    6.6060    0.6062 C   0  0  0  1  0  0  0  0  0  0  0  0
   -3.8586    5.5697    0.9914 C   0  0  0  1  0  0  0  0  0  0  0  0
   -1.3969    2.7193    1.3387 C   0  0  0  1  0  0  0  0  0  0  0  0
   -0.1214    4.9649    0.5776 H   0  0  0  1  0  0  0  0  0  0  0  0
   -1.0437    7.1676    0.1729 H   0  0  0  1  0  0  0  0  0  0  0  0
   -3.4260    7.5505    0.4269 H   0  0  0  1  0  0  0  0  0  0  0  0
   -4.8789    5.7352    1.1058 H   0  0  0  1  0  0  0  0  0  0  0  0
   -2.1972    2.0105    1.2920 H   0  0  0  1  0  0  0  0  0  0  0  0
   -0.6869    2.5076    0.5667 H   0  0  0  1  0  0  0  0  0  0  0  0
  1  4  1  0  0  0  0
  2  4  1  0  0  0  0
  2  5  2  0  0  0  0
  2  6  1  0  0  0  0
  3  4  1  0  0  0  0
  3  7  1  0  0  0  0
  3  8  1  0  0  0  0
  4 26  1  0  0  0  0
  6  9  1  0  0  0  0
  6 12  1  0  0  0  0
  8 10  1  0  0  0  0
  8 11  2  0  0  0  0
  9 13  1  0  0  0  0
  9 14  1  0  0  0  0
  9 15  1  0  0  0  0
 10 16  1  0  0  0  0
 10 17  1  0  0  0  0
 10 18  1  0  0  0  0
 19 20  1  0  0  0  0
 20 21  4  0  0  0  0
 20 25  4  0  0  0  0
 21 22  4  0  0  0  0
 21 26  1  0  0  0  0
 22 23  4  0  0  0  0
 22 27  1  0  0  0  0
 23 24  4  0  0  0  0
 23 28  1  0  0  0  0
 24 25  4  0  0  0  0
 24 29  1  0  0  0  0
 25 30  1  0  0  0  0
 26 31  1  0  0  0  0
 26 32  1  0  0  0  0
M  END
> <BCLConfClusterSize>
1

> <ConfClashScore>
0 

> <ConfOneFourInteractionScore>
-0.944706 

> <ConfScore>
-0.204382 

> <ConfScorePBest>
0.0066946 

> <ConfTolerance>
0.297895 

> <RosettaParamsInstructions>
M  ROOT 3
M  POLY_N_BB 3
M  POLY_CA_BB 4
M  POLY_C_BB 2
M  POLY_O_BB 5
M  POLY_IGNORE 9 10 11 12 13 14 15 16 17 18 
M  POLY_UPPER 6
M  POLY_LOWER 8
M  POLY_CHG 0
M  POLY_PROPERTIES ALPHA_AA L_AA PROTEIN AROMATIC POLYMER 
M  END

$$$$



 32 32  0  0  0  0  0  0  0  0999 V2000
   -0.3808    2.4274   -0.4895 H   0  0  0  1  0  0  0  0  0  0  0  0
   -0.6342    0.5220    0.3708 C   0  0  0  1  0  0  0  0  0  0  0  0
   -2.3545    1.9036   -0.7629 N   0  0  0  1  0  0  0  0  0  0  0  0
   -1.1482    1.9202    0.0570 C   0  0  0  1  0  0  0  0  0  0  0  0
   -1.2849   -0.2562    1.0669 O   0  0  0  1  0  0  0  0  0  0  0  0
    0.5507    0.2091   -0.1544 N   0  0  0  1  0  0  0  0  0  0  0  0
   -3.2167    1.7265   -0.3321 H   0  0  0  1  0  0  0  0  0  0  0  0
   -2.3245    2.1236   -2.0937 C   0  0  0  1  0  0  0  0  0  0  0  0
    1.2061   -1.0834   -0.0209 C   0  0  0  1  0  0  0  0  0  0  0  0
   -3.6348    2.1010   -2.8476 C   0  0  0  1  0  0  0  0  0  0  0  0
   -1.2634    2.3367   -2.6789 O   0  0  0  1  0  0  0  0  0  0  0  0
    1.0153    0.9016   -0.6692 H   0  0  0  1  0  0  0  0  0  0  0  0
    0.4675   -1.8570    0.0097 H   0  0  0  1  0  0  0  0  0  0  0  0
    1.7784   -1.1011    0.8831 H   0  0  0  1  0  0  0  0  0  0  0  0
    1.8544   -1.2424   -0.8571 H   0  0  0  1  0  0  0  0  0  0  0  0
   -4.3435    1.5026   -2.3142 H   0  0  0  1  0  0  0  0  0  0  0  0
   -3.4787    1.6855   -3.8212 H   0  0  0  1  0  0  0  0  0  0  0  0
   -4.0096    3.0989   -2.9410 H   0  0  0  1  0  0  0  0  0  0  0  0
   -4.1392    3.2984    1.5955 F   0  0  0  1  0  0  0  0  0  0  0  0
   -3.3303    4.3096    1.2252 C   0  0  0  1  0  0  0  0  0  0  0  0
   -1.9735    4.0909    1.0783 C   0  0  0  1  0  0  0  0  0  0  0  0
   -1.1416    5.1304    0.6920 C   0  0  0  1  0  0  0  0  0  0  0  0
   -1.6685    6.3867    0.4589 C   0  0  0  1  0  0  0  0  0  0  0  0
   -3.0292    6.6061    0.6062 C   0  0  0  1  0  0  0  0  0  0  0  0
   -3.8584    5.5697    0.9914 C   0  0  0  1  0  0  0  0  0  0  0  0
   -1.3970    2.7193    1.3387 C   0  0  0  1  0  0  0  0  0  0  0  0
   -0.1213    4.9649    0.5776 H   0  0  0  1  0  0  0  0  0  0  0  0
   -1.0439    7.1676    0.1730 H   0  0  0  1  0  0  0  0  0  0  0  0
   -3.4261    7.5505    0.4269 H   0  0  0  1  0  0  0  0  0  0  0  0
   -4.8787    5.7352    1.1058 H   0  0  0  1  0  0  0  0  0  0  0  0
   -0.4668    2.8332    1.8550 H   0  0  0  1  0  0  0  0  0  0  0  0
   -2.0819    2.1731    1.9531 H   0  0  0  1  0  0  0  0  0  0  0  0
  1  4  1  0  0  0  0
  2  4  1  0  0  0  0
  2  5  2  0  0  0  0
  2  6  1  0  0  0  0
  3  4  1  0  0  0  0
  3  7  1  0  0  0  0
  3  8  1  0  0  0  0
  4 26  1  0  0  0  0
  6  9  1  0  0  0  0
  6 12  1  0  0  0  0
  8 10  1  0  0  0  0
  8 11  2  0  0  0  0
  9 13  1  0  0  0  0
  9 14  1  0  0  0  0
  9 15  1  0  0  0  0
 10 16  1  0  0  0  0
 10 17  1  0  0  0  0
 10 18  1  0  0  0  0
 19 20  1  0  0  0  0
 20 21  4  0  0  0  0
 20 25  4  0  0  0  0
 21 22  4  0  0  0  0
 21 26  1  0  0  0  0
 22 23  4  0  0  0  0
 22 27  1  0  0  0  0
 23 24  4  0  0  0  0
 23 28  1  0  0  0  0
 24 25  4  0  0  0  0
 24 29  1  0  0  0  0
 25 30  1  0  0  0  0
 26 31  1  0  0  0  0
 26 32  1  0  0  0  0
M  END
> <BCLConfClusterSize>
1

> <ConfClashScore>
0 

> <ConfOneFourInteractionScore>
-0.979134 

> <ConfScore>
-0.200077 

> <ConfScorePBest>
0.00666612 

> <ConfTolerance>
0.259077 

> <RosettaParamsInstructions>
M  ROOT 3
M  POLY_N_BB 3
M  POLY_CA_BB 4
M  POLY_C_BB 2
M  POLY_O_BB 5
M  POLY_IGNORE 9 10 11 12 13 14 15 16 17 18 
M  POLY_UPPER 6
M  POLY_LOWER 8
M  POLY_CHG 0
M  POLY_PROPERTIES ALPHA_AA L_AA PROTEIN AROMATIC POLYMER 
M  END

$$$$



 32 32  0  0  0  0  0  0  0  0999 V2000
   -1.9428    2.5046    3.3406 H   0  0  0  1  0  0  0  0  0  0  0  0
   -0.3852    1.1494    3.1139 C   0  0  0  1  0  0  0  0  0  0  0  0
   -0.2267    3.6178    3.3535 N   0  0  0  1  0  0  0  0  0  0  0  0
   -1.0162    2.4970    2.8057 C   0  0  0  1  0  0  0  0  0  0  0  0
   -0.9625    0.1017    2.8263 O   0  0  0  1  0  0  0  0  0  0  0  0
    0.8128    1.1373    3.7053 N   0  0  0  1  0  0  0  0  0  0  0  0
    0.4755    4.0173    2.7988 H   0  0  0  1  0  0  0  0  0  0  0  0
   -0.4442    4.1249    4.6255 C   0  0  0  1  0  0  0  0  0  0  0  0
    1.4529   -0.0954    4.1397 C   0  0  0  1  0  0  0  0  0  0  0  0
    0.3547    5.3121    5.0851 C   0  0  0  1  0  0  0  0  0  0  0  0
   -1.2793    3.5889    5.3311 O   0  0  0  1  0  0  0  0  0  0  0  0
    1.2767    1.9881    3.8516 H   0  0  0  1  0  0  0  0  0  0  0  0
    2.5158    0.0189    4.0943 H   0  0  0  1  0  0  0  0  0  0  0  0
    1.1530   -0.8978    3.4986 H   0  0  0  1  0  0  0  0  0  0  0  0
    1.1605   -0.3135    5.1456 H   0  0  0  1  0  0  0  0  0  0  0  0
    0.3572    6.0591    4.3190 H   0  0  0  1  0  0  0  0  0  0  0  0
    1.3600    5.0077    5.2893 H   0  0  0  1  0  0  0  0  0  0  0  0
   -0.0842    5.7146    5.9740 H   0  0  0  1  0  0  0  0  0  0  0  0
   -4.1391    3.2985    1.5955 F   0  0  0  1  0  0  0  0  0  0  0  0
   -3.3302    4.3097    1.2252 C   0  0  0  1  0  0  0  0  0  0  0  0
   -1.9734    4.0909    1.0783 C   0  0  0  1  0  0  0  0  0  0  0  0
   -1.1417    5.1304    0.6920 C   0  0  0  1  0  0  0  0  0  0  0  0
   -1.6684    6.3868    0.4589 C   0  0  0  1  0  0  0  0  0  0  0  0
   -3.0292    6.6060    0.6062 C   0  0  0  1  0  0  0  0  0  0  0  0
   -3.8585    5.5697    0.9914 C   0  0  0  1  0  0  0  0  0  0  0  0
   -1.3970    2.7192    1.3387 C   0  0  0  1  0  0  0  0  0  0  0  0
   -0.1214    4.9649    0.5776 H   0  0  0  1  0  0  0  0  0  0  0  0
   -1.0438    7.1677    0.1729 H   0  0  0  1  0  0  0  0  0  0  0  0
   -3.4261    7.5504    0.4269 H   0  0  0  1  0  0  0  0  0  0  0  0
   -4.8789    5.7352    1.1058 H   0  0  0  1  0  0  0  0  0  0  0  0
   -2.1247    1.9856    1.0609 H   0  0  0  1  0  0  0  0  0  0  0  0
   -0.5204    2.5984    0.7372 H   0  0  0  1  0  0  0  0  0  0  0  0
  1  4  1  0  0  0  0
  2  4  1  0  0  0  0
  2  5  2  0  0  0  0
  2  6  1  0  0  0  0
  3  4  1  0  0  0  0
  3  7  1  0  0  0  0
  3  8  1  0  0  0  0
  4 26  1  0  0  0  0
  6  9  1  0  0  0  0
  6 12  1  0  0  0  0
  8 10  1  0  0  0  0
  8 11  2  0  0  0  0
  9 13  1  0  0  0  0
  9 14  1  0  0  0  0
  9 15  1  0  0  0  0
 10 16  1  0  0  0  0
 10 17  1  0  0  0  0
 10 18  1  0  0  0  0
 19 20  1  0  0  0  0
 20 21  4  0  0  0  0
 20 25  4  0  0  0  0
 21 22  4  0  0  0  0
 21 26  1  0  0  0  0
 22 23  4  0  0  0  0
 22 27  1  0  0  0  0
 23 24  4  0  0  0  0
 23 28  1  0  0  0  0
 24 25  4  0  0  0  0
 24 29  1  0  0  0  0
 25 30  1  0  0  0  0
 26 31  1  0  0  0  0
 26 32  1  0  0  0  0
M  END
> <BCLConfClusterSize>
1

> <ConfClashScore>
0 

> <ConfOneFourInteractionScore>
-0.94165 

> <ConfScore>
-0.199739 

> <ConfScorePBest>
0.00663764 

> <ConfTolerance>
0.260124 

> <RosettaParamsInstructions>
M  ROOT 3
M  POLY_N_BB 3
M  POLY_CA_BB 4
M  POLY_C_BB 2
M  POLY_O_BB 5
M  POLY_IGNORE 9 10 11 12 13 14 15 16 17 18 
M  POLY_UPPER 6
M  POLY_LOWER 8
M  POLY_CHG 0
M  POLY_PROPERTIES ALPHA_AA L_AA PROTEIN AROMATIC POLYMER 
M  END

$$$$



 32 32  0  0  0  0  0  0  0  0999 V2000
   -1.0945    2.3498   -0.7291 H   0  0  0  1  0  0  0  0  0  0  0  0
   -0.5647    0.5911    0.3113 C   0  0  0  1  0  0  0  0  0  0  0  0
   -2.8245    1.3769   -0.1500 N   0  0  0  1  0  0  0  0  0  0  0  0
   -1.4576    1.8007    0.1144 C   0  0  0  1  0  0  0  0  0  0  0  0
   -1.0042   -0.4536    0.7629 O   0  0  0  1  0  0  0  0  0  0  0  0
    0.7145    0.7507   -0.0396 N   0  0  0  1  0  0  0  0  0  0  0  0
   -3.4395    1.2654    0.6049 H   0  0  0  1  0  0  0  0  0  0  0  0
   -3.2702    1.1344   -1.3859 C   0  0  0  1  0  0  0  0  0  0  0  0
    1.6856   -0.3296    0.0488 C   0  0  0  1  0  0  0  0  0  0  0  0
   -4.7393    0.7761   -1.4980 C   0  0  0  1  0  0  0  0  0  0  0  0
   -2.5509    1.1933   -2.3797 O   0  0  0  1  0  0  0  0  0  0  0  0
    1.0092    1.6258   -0.3680 H   0  0  0  1  0  0  0  0  0  0  0  0
    1.4277   -0.9759    0.8617 H   0  0  0  1  0  0  0  0  0  0  0  0
    2.6602    0.0798    0.2143 H   0  0  0  1  0  0  0  0  0  0  0  0
    1.6827   -0.8871   -0.8645 H   0  0  0  1  0  0  0  0  0  0  0  0
   -5.1850    0.7880   -0.5254 H   0  0  0  1  0  0  0  0  0  0  0  0
   -4.8363   -0.2013   -1.9225 H   0  0  0  1  0  0  0  0  0  0  0  0
   -5.2331    1.4885   -2.1252 H   0  0  0  1  0  0  0  0  0  0  0  0
   -4.1392    3.2983    1.5955 F   0  0  0  1  0  0  0  0  0  0  0  0
   -3.3303    4.3095    1.2252 C   0  0  0  1  0  0  0  0  0  0  0  0
   -1.9735    4.0910    1.0783 C   0  0  0  1  0  0  0  0  0  0  0  0
   -1.1417    5.1304    0.6920 C   0  0  0  1  0  0  0  0  0  0  0  0
   -1.6684    6.3867    0.4589 C   0  0  0  1  0  0  0  0  0  0  0  0
   -3.0292    6.6061    0.6062 C   0  0  0  1  0  0  0  0  0  0  0  0
   -3.8585    5.5697    0.9914 C   0  0  0  1  0  0  0  0  0  0  0  0
   -1.3970    2.7194    1.3387 C   0  0  0  1  0  0  0  0  0  0  0  0
   -0.1213    4.9649    0.5776 H   0  0  0  1  0  0  0  0  0  0  0  0
   -1.0438    7.1675    0.1730 H   0  0  0  1  0  0  0  0  0  0  0  0
   -3.4261    7.5506    0.4269 H   0  0  0  1  0  0  0  0  0  0  0  0
   -4.8788    5.7352    1.1058 H   0  0  0  1  0  0  0  0  0  0  0  0
   -0.3737    2.8299    1.6311 H   0  0  0  1  0  0  0  0  0  0  0  0
   -1.9486    2.2635    2.1342 H   0  0  0  1  0  0  0  0  0  0  0  0
  1  4  1  0  0  0  0
  2  4  1  0  0  0  0
  2  5  2  0  0  0  0
  2  6  1  0  0  0  0
  3  4  1  0  0  0  0
  3  7  1  0  0  0  0
  3  8  1  0  0  0  0
  4 26  1  0  0  0  0
  6  9  1  0  0  0  0
  6 12  1  0  0  0  0
  8 10  1  0  0  0  0
  8 11  2  0  0  0  0
  9 13  1  0  0  0  0
  9 14  1  0  0  0  0
  9 15  1  0  0  0  0
 10 16  1  0  0  0  0
 10 17  1  0  0  0  0
 10 18  1  0  0  0  0
 19 20  1  0  0  0  0
 20 21  4  0  0  0  0
 20 25  4  0  0  0  0
 21 22  4  0  0  0  0
 21 26  1  0  0  0  0
 22 23  4  0  0  0  0
 22 27  1  0  0  0  0
 23 24  4  0  0  0  0
 23 28  1  0  0  0  0
 24 25  4  0  0  0  0
 24 29  1  0  0  0  0
 25 30  1  0  0  0  0
 26 31  1  0  0  0  0
 26 32  1  0  0  0  0
M  END
> <BCLConfClusterSize>
1

> <ConfClashScore>
0 

> <ConfOneFourInteractionScore>
-0.974251 

> <ConfScore>
-0.196241 

> <ConfScorePBest>
0.00660916 

> <ConfTolerance>
0.230225 

> <RosettaParamsInstructions>
M  ROOT 3
M  POLY_N_BB 3
M  POLY_CA_BB 4
M  POLY_C_BB 2
M  POLY_O_BB 5
M  POLY_IGNORE 9 10 11 12 13 14 15 16 17 18 
M  POLY_UPPER 6
M  POLY_LOWER 8
M  POLY_CHG 0
M  POLY_PROPERTIES ALPHA_AA L_AA PROTEIN AROMATIC POLYMER 
M  END

$$$$



 32 32  0  0  0  0  0  0  0  0999 V2000
   -0.6200    2.4007   -0.6120 H   0  0  0  1  0  0  0  0  0  0  0  0
   -0.7923    0.5030    0.3096 C   0  0  0  1  0  0  0  0  0  0  0  0
   -2.5861    1.7689   -0.6428 N   0  0  0  1  0  0  0  0  0  0  0  0
   -1.3125    1.9094    0.0392 C   0  0  0  1  0  0  0  0  0  0  0  0
   -1.5588   -0.4198    0.5815 O   0  0  0  1  0  0  0  0  0  0  0  0
    0.5382    0.3484    0.2307 N   0  0  0  1  0  0  0  0  0  0  0  0
   -3.4082    1.9993   -0.1616 H   0  0  0  1  0  0  0  0  0  0  0  0
   -2.6775    1.3321   -1.9160 C   0  0  0  1  0  0  0  0  0  0  0  0
    1.1811   -0.9472    0.3911 C   0  0  0  1  0  0  0  0  0  0  0  0
   -4.0534    1.2243   -2.5334 C   0  0  0  1  0  0  0  0  0  0  0  0
   -1.6724    1.0297   -2.5579 O   0  0  0  1  0  0  0  0  0  0  0  0
    1.0964    1.1354    0.0592 H   0  0  0  1  0  0  0  0  0  0  0  0
    0.6019   -1.6973   -0.1057 H   0  0  0  1  0  0  0  0  0  0  0  0
    1.2523   -1.1833    1.4323 H   0  0  0  1  0  0  0  0  0  0  0  0
    2.1619   -0.9137   -0.0354 H   0  0  0  1  0  0  0  0  0  0  0  0
   -4.4582    2.2043   -2.6771 H   0  0  0  1  0  0  0  0  0  0  0  0
   -4.6935    0.6663   -1.8824 H   0  0  0  1  0  0  0  0  0  0  0  0
   -3.9824    0.7260   -3.4777 H   0  0  0  1  0  0  0  0  0  0  0  0
   -4.1392    3.2984    1.5955 F   0  0  0  1  0  0  0  0  0  0  0  0
   -3.3303    4.3096    1.2252 C   0  0  0  1  0  0  0  0  0  0  0  0
   -1.9735    4.0909    1.0783 C   0  0  0  1  0  0  0  0  0  0  0  0
   -1.1416    5.1304    0.6920 C   0  0  0  1  0  0  0  0  0  0  0  0
   -1.6685    6.3867    0.4589 C   0  0  0  1  0  0  0  0  0  0  0  0
   -3.0292    6.6061    0.6062 C   0  0  0  1  0  0  0  0  0  0  0  0
   -3.8584    5.5697    0.9914 C   0  0  0  1  0  0  0  0  0  0  0  0
   -1.3970    2.7193    1.3387 C   0  0  0  1  0  0  0  0  0  0  0  0
   -0.1213    4.9649    0.5776 H   0  0  0  1  0  0  0  0  0  0  0  0
   -1.0439    7.1676    0.1730 H   0  0  0  1  0  0  0  0  0  0  0  0
   -3.4261    7.5505    0.4269 H   0  0  0  1  0  0  0  0  0  0  0  0
   -4.8787    5.7352    1.1058 H   0  0  0  1  0  0  0  0  0  0  0  0
   -0.4154    2.8239    1.7514 H   0  0  0  1  0  0  0  0  0  0  0  0
   -2.0238    2.2017    2.0345 H   0  0  0  1  0  0  0  0  0  0  0  0
  1  4  1  0  0  0  0
  2  4  1  0  0  0  0
  2  5  2  0  0  0  0
  2  6  1  0  0  0  0
  3  4  1  0  0  0  0
  3  7  1  0  0  0  0
  3  8  1  0  0  0  0
  4 26  1  0  0  0  0
  6  9  1  0  0  0  0
  6 12  1  0  0  0  0
  8 10  1  0  0  0  0
  8 11  2  0  0  0  0
  9 13  1  0  0  0  0
  9 14  1  0  0  0  0
  9 15  1  0  0  0  0
 10 16  1  0  0  0  0
 10 17  1  0  0  0  0
 10 18  1  0  0  0  0
 19 20  1  0  0  0  0
 20 21  4  0  0  0  0
 20 25  4  0  0  0  0
 21 22  4  0  0  0  0
 21 26  1  0  0  0  0
 22 23  4  0  0  0  0
 22 27  1  0  0  0  0
 23 24  4  0  0  0  0
 23 28  1  0  0  0  0
 24 25  4  0  0  0  0
 24 29  1  0  0  0  0
 25 30  1  0  0  0  0
 26 31  1  0  0  0  0
 26 32  1  0  0  0  0
M  END
> <BCLConfClusterSize>
1

> <ConfClashScore>
0 

> <ConfOneFourInteractionScore>
-0.987695 

> <ConfScore>
-0.195436 

> <ConfScorePBest>
0.00658068 

> <ConfTolerance>
0.243134 

> <RosettaParamsInstructions>
M  ROOT 3
M  POLY_N_BB 3
M  POLY_CA_BB 4
M  POLY_C_BB 2
M  POLY_O_BB 5
M  POLY_IGNORE 9 10 11 12 13 14 15 16 17 18 
M  POLY_UPPER 6
M  POLY_LOWER 8
M  POLY_CHG 0
M  POLY_PROPERTIES ALPHA_AA L_AA PROTEIN AROMATIC POLYMER 
M  END

$$$$



 32 32  0  0  0  0  0  0  0  0999 V2000
   -1.7808    2.7001    3.4062 H   0  0  0  1  0  0  0  0  0  0  0  0
   -0.6518    0.9715    2.9541 C   0  0  0  1  0  0  0  0  0  0  0  0
    0.1904    3.2549    3.1192 N   0  0  0  1  0  0  0  0  0  0  0  0
   -0.9653    2.4460    2.7618 C   0  0  0  1  0  0  0  0  0  0  0  0
    0.4917    0.5447    2.8022 O   0  0  0  1  0  0  0  0  0  0  0  0
   -1.6638    0.1472    3.2958 N   0  0  0  1  0  0  0  0  0  0  0  0
    0.6634    3.7146    2.3944 H   0  0  0  1  0  0  0  0  0  0  0  0
    0.6544    3.4179    4.3592 C   0  0  0  1  0  0  0  0  0  0  0  0
   -1.4461   -1.2904    3.3578 C   0  0  0  1  0  0  0  0  0  0  0  0
    1.7485    4.4488    4.5208 C   0  0  0  1  0  0  0  0  0  0  0  0
    0.2316    2.7792    5.3220 O   0  0  0  1  0  0  0  0  0  0  0  0
   -2.5473    0.5173    3.5027 H   0  0  0  1  0  0  0  0  0  0  0  0
   -0.7345   -1.5763    2.6116 H   0  0  0  1  0  0  0  0  0  0  0  0
   -2.3709   -1.7988    3.1818 H   0  0  0  1  0  0  0  0  0  0  0  0
   -1.0727   -1.5529    4.3256 H   0  0  0  1  0  0  0  0  0  0  0  0
    2.5521    4.2249    3.8508 H   0  0  0  1  0  0  0  0  0  0  0  0
    2.1088    4.4312    5.5282 H   0  0  0  1  0  0  0  0  0  0  0  0
    1.3587    5.4201    4.2979 H   0  0  0  1  0  0  0  0  0  0  0  0
   -4.1397    3.3020    1.6037 F   0  0  0  1  0  0  0  0  0  0  0  0
   -3.3318    4.3115    1.2268 C   0  0  0  1  0  0  0  0  0  0  0  0
   -1.9715    4.0913    1.0765 C   0  0  0  1  0  0  0  0  0  0  0  0
   -1.1417    5.1287    0.6949 C   0  0  0  1  0  0  0  0  0  0  0  0
   -1.6705    6.3878    0.4572 C   0  0  0  1  0  0  0  0  0  0  0  0
   -3.0268    6.6072    0.6071 C   0  0  0  1  0  0  0  0  0  0  0  0
   -3.8591    5.5669    0.9899 C   0  0  0  1  0  0  0  0  0  0  0  0
   -1.3961    2.7179    1.3298 C   0  0  0  1  0  0  0  0  0  0  0  0
   -0.1205    4.9646    0.5860 H   0  0  0  1  0  0  0  0  0  0  0  0
   -1.0466    7.1674    0.1662 H   0  0  0  1  0  0  0  0  0  0  0  0
   -3.4229    7.5528    0.4327 H   0  0  0  1  0  0  0  0  0  0  0  0
   -4.8803    5.7311    1.0987 H   0  0  0  1  0  0  0  0  0  0  0  0
   -2.1393    1.9949    1.0656 H   0  0  0  1  0  0  0  0  0  0  0  0
   -0.5402    2.5972    0.6990 H   0  0  0  1  0  0  0  0  0  0  0  0
  1  4  1  0  0  0  0
  2  4  1  0  0  0  0
  2  5  2  0  0  0  0
  2  6  1  0  0  0  0
  3  4  1  0  0  0  0
  3  7  1  0  0  0  0
  3  8  1  0  0  0  0
  4 26  1  0  0  0  0
  6  9  1  0  0  0  0
  6 12  1  0  0  0  0
  8 10  1  0  0  0  0
  8 11  2  0  0  0  0
  9 13  1  0  0  0  0
  9 14  1  0  0  0  0
  9 15  1  0  0  0  0
 10 16  1  0  0  0  0
 10 17  1  0  0  0  0
 10 18  1  0  0  0  0
 19 20  1  0  0  0  0
 20 21  4  0  0  0  0
 20 25  4  0  0  0  0
 21 22  4  0  0  0  0
 21 26  1  0  0  0  0
 22 23  4  0  0  0  0
 22 27  1  0  0  0  0
 23 24  4  0  0  0  0
 23 28  1  0  0  0  0
 24 25  4  0  0  0  0
 24 29  1  0  0  0  0
 25 30  1  0  0  0  0
 26 31  1  0  0  0  0
 26 32  1  0  0  0  0
M  END
> <BCLConfClusterSize>
1

> <ConfClashScore>
0 

> <ConfOneFourInteractionScore>
-0.985807 

> <ConfScore>
-0.193268 

> <ConfScorePBest>
0.0065522 

> <ConfTolerance>
0.21859 

> <RosettaParamsInstructions>
M  ROOT 3
M  POLY_N_BB 3
M  POLY_CA_BB 4
M  POLY_C_BB 2
M  POLY_O_BB 5
M  POLY_IGNORE 9 10 11 12 13 14 15 16 17 18 
M  POLY_UPPER 6
M  POLY_LOWER 8
M  POLY_CHG 0
M  POLY_PROPERTIES ALPHA_AA L_AA PROTEIN AROMATIC POLYMER 
M  END

$$$$



 32 32  0  0  0  0  0  0  0  0999 V2000
   -0.4186    2.4752   -0.5485 H   0  0  0  1  0  0  0  0  0  0  0  0
   -0.5233    0.5710    0.4060 C   0  0  0  1  0  0  0  0  0  0  0  0
   -2.3632    1.7656   -0.7062 N   0  0  0  1  0  0  0  0  0  0  0  0
   -1.1275    1.9331    0.0418 C   0  0  0  1  0  0  0  0  0  0  0  0
    0.4919    0.5162    1.0983 O   0  0  0  1  0  0  0  0  0  0  0  0
   -1.1984   -0.5122    0.0108 N   0  0  0  1  0  0  0  0  0  0  0  0
   -3.1785    1.5744   -0.1973 H   0  0  0  1  0  0  0  0  0  0  0  0
   -2.4705    1.8527   -2.0330 C   0  0  0  1  0  0  0  0  0  0  0  0
   -0.7512   -1.8623    0.3191 C   0  0  0  1  0  0  0  0  0  0  0  0
   -3.8473    1.5888   -2.5993 C   0  0  0  1  0  0  0  0  0  0  0  0
   -1.5212    2.1290   -2.7651 O   0  0  0  1  0  0  0  0  0  0  0  0
   -2.0233   -0.3933   -0.5047 H   0  0  0  1  0  0  0  0  0  0  0  0
    0.3184   -1.8894    0.3348 H   0  0  0  1  0  0  0  0  0  0  0  0
   -1.1139   -2.5372   -0.4278 H   0  0  0  1  0  0  0  0  0  0  0  0
   -1.1292   -2.1529    1.2770 H   0  0  0  1  0  0  0  0  0  0  0  0
   -3.8456    1.7892   -3.6504 H   0  0  0  1  0  0  0  0  0  0  0  0
   -4.5593    2.2250   -2.1163 H   0  0  0  1  0  0  0  0  0  0  0  0
   -4.1113    0.5655   -2.4320 H   0  0  0  1  0  0  0  0  0  0  0  0
   -4.1398    3.3019    1.6037 F   0  0  0  1  0  0  0  0  0  0  0  0
   -3.3319    4.3114    1.2268 C   0  0  0  1  0  0  0  0  0  0  0  0
   -1.9716    4.0914    1.0765 C   0  0  0  1  0  0  0  0  0  0  0  0
   -1.1416    5.1287    0.6948 C   0  0  0  1  0  0  0  0  0  0  0  0
   -1.6705    6.3878    0.4572 C   0  0  0  1  0  0  0  0  0  0  0  0
   -3.0268    6.6073    0.6071 C   0  0  0  1  0  0  0  0  0  0  0  0
   -3.8590    5.5669    0.9899 C   0  0  0  1  0  0  0  0  0  0  0  0
   -1.3962    2.7180    1.3297 C   0  0  0  1  0  0  0  0  0  0  0  0
   -0.1204    4.9645    0.5860 H   0  0  0  1  0  0  0  0  0  0  0  0
   -1.0467    7.1674    0.1662 H   0  0  0  1  0  0  0  0  0  0  0  0
   -3.4230    7.5529    0.4327 H   0  0  0  1  0  0  0  0  0  0  0  0
   -4.8802    5.7310    1.0987 H   0  0  0  1  0  0  0  0  0  0  0  0
   -0.4736    2.8278    1.8604 H   0  0  0  1  0  0  0  0  0  0  0  0
   -2.0887    2.1637    1.9282 H   0  0  0  1  0  0  0  0  0  0  0  0
  1  4  1  0  0  0  0
  2  4  1  0  0  0  0
  2  5  2  0  0  0  0
  2  6  1  0  0  0  0
  3  4  1  0  0  0  0
  3  7  1  0  0  0  0
  3  8  1  0  0  0  0
  4 26  1  0  0  0  0
  6  9  1  0  0  0  0
  6 12  1  0  0  0  0
  8 10  1  0  0  0  0
  8 11  2  0  0  0  0
  9 13  1  0  0  0  0
  9 14  1  0  0  0  0
  9 15  1  0  0  0  0
 10 16  1  0  0  0  0
 10 17  1  0  0  0  0
 10 18  1  0  0  0  0
 19 20  1  0  0  0  0
 20 21  4  0  0  0  0
 20 25  4  0  0  0  0
 21 22  4  0  0  0  0
 21 26  1  0  0  0  0
 22 23  4  0  0  0  0
 22 27  1  0  0  0  0
 23 24  4  0  0  0  0
 23 28  1  0  0  0  0
 24 25  4  0  0  0  0
 24 29  1  0  0  0  0
 25 30  1  0  0  0  0
 26 31  1  0  0  0  0
 26 32  1  0  0  0  0
M  END
> <BCLConfClusterSize>
1

> <ConfClashScore>
0 

> <ConfOneFourInteractionScore>
-0.94165 

> <ConfScore>
-0.193023 

> <ConfScorePBest>
0.00652372 

> <ConfTolerance>
0.231435 

> <RosettaParamsInstructions>
M  ROOT 3
M  POLY_N_BB 3
M  POLY_CA_BB 4
M  POLY_C_BB 2
M  POLY_O_BB 5
M  POLY_IGNORE 9 10 11 12 13 14 15 16 17 18 
M  POLY_UPPER 6
M  POLY_LOWER 8
M  POLY_CHG 0
M  POLY_PROPERTIES ALPHA_AA L_AA PROTEIN AROMATIC POLYMER 
M  END

$$$$



 32 32  0  0  0  0  0  0  0  0999 V2000
   -1.6969    2.6887    3.4066 H   0  0  0  1  0  0  0  0  0  0  0  0
   -0.5871    0.9593    2.9808 C   0  0  0  1  0  0  0  0  0  0  0  0
    0.2378    3.2933    3.0213 N   0  0  0  1  0  0  0  0  0  0  0  0
   -0.9070    2.4212    2.7362 C   0  0  0  1  0  0  0  0  0  0  0  0
   -1.3641    0.0777    2.6529 O   0  0  0  1  0  0  0  0  0  0  0  0
    0.5860    0.7127    3.5708 N   0  0  0  1  0  0  0  0  0  0  0  0
    0.8600    3.5094    2.2956 H   0  0  0  1  0  0  0  0  0  0  0  0
    0.4637    3.8083    4.2477 C   0  0  0  1  0  0  0  0  0  0  0  0
    0.9385   -0.6043    4.0798 C   0  0  0  1  0  0  0  0  0  0  0  0
    1.7741    4.5329    4.4862 C   0  0  0  1  0  0  0  0  0  0  0  0
   -0.3674    3.6947    5.1477 O   0  0  0  1  0  0  0  0  0  0  0  0
    1.2316    1.4441    3.6639 H   0  0  0  1  0  0  0  0  0  0  0  0
    0.1892   -1.3113    3.7907 H   0  0  0  1  0  0  0  0  0  0  0  0
    1.0020   -0.5685    5.1473 H   0  0  0  1  0  0  0  0  0  0  0  0
    1.8837   -0.9014    3.6756 H   0  0  0  1  0  0  0  0  0  0  0  0
    1.9544    5.2182    3.6845 H   0  0  0  1  0  0  0  0  0  0  0  0
    2.5717    3.8211    4.5328 H   0  0  0  1  0  0  0  0  0  0  0  0
    1.7211    5.0708    5.4097 H   0  0  0  1  0  0  0  0  0  0  0  0
   -4.1391    3.2984    1.5955 F   0  0  0  1  0  0  0  0  0  0  0  0
   -3.3302    4.3096    1.2252 C   0  0  0  1  0  0  0  0  0  0  0  0
   -1.9734    4.0909    1.0783 C   0  0  0  1  0  0  0  0  0  0  0  0
   -1.1418    5.1304    0.6920 C   0  0  0  1  0  0  0  0  0  0  0  0
   -1.6684    6.3868    0.4589 C   0  0  0  1  0  0  0  0  0  0  0  0
   -3.0291    6.6060    0.6062 C   0  0  0  1  0  0  0  0  0  0  0  0
   -3.8586    5.5697    0.9914 C   0  0  0  1  0  0  0  0  0  0  0  0
   -1.3969    2.7193    1.3387 C   0  0  0  1  0  0  0  0  0  0  0  0
   -0.1214    4.9649    0.5776 H   0  0  0  1  0  0  0  0  0  0  0  0
   -1.0437    7.1676    0.1729 H   0  0  0  1  0  0  0  0  0  0  0  0
   -3.4260    7.5505    0.4269 H   0  0  0  1  0  0  0  0  0  0  0  0
   -4.8789    5.7352    1.1058 H   0  0  0  1  0  0  0  0  0  0  0  0
   -2.1572    2.0031    1.1064 H   0  0  0  1  0  0  0  0  0  0  0  0
   -0.5684    2.5888    0.6743 H   0  0  0  1  0  0  0  0  0  0  0  0
  1  4  1  0  0  0  0
  2  4  1  0  0  0  0
  2  5  2  0  0  0  0
  2  6  1  0  0  0  0
  3  4  1  0  0  0  0
  3  7  1  0  0  0  0
  3  8  1  0  0  0  0
  4 26  1  0  0  0  0
  6  9  1  0  0  0  0
  6 12  1  0  0  0  0
  8 10  1  0  0  0  0
  8 11  2  0  0  0  0
  9 13  1  0  0  0  0
  9 14  1  0  0  0  0
  9 15  1  0  0  0  0
 10 16  1  0  0  0  0
 10 17  1  0  0  0  0
 10 18  1  0  0  0  0
 19 20  1  0  0  0  0
 20 21  4  0  0  0  0
 20 25  4  0  0  0  0
 21 22  4  0  0  0  0
 21 26  1  0  0  0  0
 22 23  4  0  0  0  0
 22 27  1  0  0  0  0
 23 24  4  0  0  0  0
 23 28  1  0  0  0  0
 24 25  4  0  0  0  0
 24 29  1  0  0  0  0
 25 30  1  0  0  0  0
 26 31  1  0  0  0  0
 26 32  1  0  0  0  0
M  END
> <BCLConfClusterSize>
1

> <ConfClashScore>
0 

> <ConfOneFourInteractionScore>
-0.956443 

> <ConfScore>
-0.192616 

> <ConfScorePBest>
0.00649524 

> <ConfTolerance>
0.264086 

> <RosettaParamsInstructions>
M  ROOT 3
M  POLY_N_BB 3
M  POLY_CA_BB 4
M  POLY_C_BB 2
M  POLY_O_BB 5
M  POLY_IGNORE 9 10 11 12 13 14 15 16 17 18 
M  POLY_UPPER 6
M  POLY_LOWER 8
M  POLY_CHG 0
M  POLY_PROPERTIES ALPHA_AA L_AA PROTEIN AROMATIC POLYMER 
M  END

$$$$



 32 32  0  0  0  0  0  0  0  0999 V2000
   -2.9239    2.1644    2.6342 H   0  0  0  1  0  0  0  0  0  0  0  0
   -1.5166    0.6501    2.8611 C   0  0  0  1  0  0  0  0  0  0  0  0
   -1.4487    2.9451    3.8178 N   0  0  0  1  0  0  0  0  0  0  0  0
   -1.8551    2.1210    2.6624 C   0  0  0  1  0  0  0  0  0  0  0  0
   -2.0320   -0.2220    2.1667 O   0  0  0  1  0  0  0  0  0  0  0  0
   -0.6344    0.3831    3.8283 N   0  0  0  1  0  0  0  0  0  0  0  0
   -0.8477    3.7048    3.6689 H   0  0  0  1  0  0  0  0  0  0  0  0
   -1.8717    2.6914    5.0595 C   0  0  0  1  0  0  0  0  0  0  0  0
   -0.2729   -0.9945    4.1276 C   0  0  0  1  0  0  0  0  0  0  0  0
   -1.4305    3.6804    6.1207 C   0  0  0  1  0  0  0  0  0  0  0  0
   -2.5689    1.7304    5.3403 O   0  0  0  1  0  0  0  0  0  0  0  0
   -0.2299    1.1164    4.3372 H   0  0  0  1  0  0  0  0  0  0  0  0
   -0.9537   -1.3934    4.8504 H   0  0  0  1  0  0  0  0  0  0  0  0
    0.7219   -1.0246    4.5204 H   0  0  0  1  0  0  0  0  0  0  0  0
   -0.3213   -1.5783    3.2322 H   0  0  0  1  0  0  0  0  0  0  0  0
   -2.1153    4.5021    6.1501 H   0  0  0  1  0  0  0  0  0  0  0  0
   -0.4508    4.0412    5.8864 H   0  0  0  1  0  0  0  0  0  0  0  0
   -1.4141    3.1959    7.0746 H   0  0  0  1  0  0  0  0  0  0  0  0
   -4.1390    3.2984    1.5955 F   0  0  0  1  0  0  0  0  0  0  0  0
   -3.3302    4.3097    1.2252 C   0  0  0  1  0  0  0  0  0  0  0  0
   -1.9734    4.0909    1.0783 C   0  0  0  1  0  0  0  0  0  0  0  0
   -1.1418    5.1304    0.6920 C   0  0  0  1  0  0  0  0  0  0  0  0
   -1.6684    6.3868    0.4589 C   0  0  0  1  0  0  0  0  0  0  0  0
   -3.0292    6.6061    0.6062 C   0  0  0  1  0  0  0  0  0  0  0  0
   -3.8585    5.5697    0.9914 C   0  0  0  1  0  0  0  0  0  0  0  0
   -1.3970    2.7192    1.3387 C   0  0  0  1  0  0  0  0  0  0  0  0
   -0.1214    4.9648    0.5776 H   0  0  0  1  0  0  0  0  0  0  0  0
   -1.0437    7.1676    0.1729 H   0  0  0  1  0  0  0  0  0  0  0  0
   -3.4261    7.5505    0.4269 H   0  0  0  1  0  0  0  0  0  0  0  0
   -4.8789    5.7352    1.1058 H   0  0  0  1  0  0  0  0  0  0  0  0
   -1.7001    2.0665    0.5469 H   0  0  0  1  0  0  0  0  0  0  0  0
   -0.3297    2.7950    1.3504 H   0  0  0  1  0  0  0  0  0  0  0  0
  1  4  1  0  0  0  0
  2  4  1  0  0  0  0
  2  5  2  0  0  0  0
  2  6  1  0  0  0  0
  3  4  1  0  0  0  0
  3  7  1  0  0  0  0
  3  8  1  0  0  0  0
  4 26  1  0  0  0  0
  6  9  1  0  0  0  0
  6 12  1  0  0  0  0
  8 10  1  0  0  0  0
  8 11  2  0  0  0  0
  9 13  1  0  0  0  0
  9 14  1  0  0  0  0
  9 15  1  0  0  0  0
 10 16  1  0  0  0  0
 10 17  1  0  0  0  0
 10 18  1  0  0  0  0
 19 20  1  0  0  0  0
 20 21  4  0  0  0  0
 20 25  4  0  0  0  0
 21 22  4  0  0  0  0
 21 26  1  0  0  0  0
 22 23  4  0  0  0  0
 22 27  1  0  0  0  0
 23 24  4  0  0  0  0
 23 28  1  0  0  0  0
 24 25  4  0  0  0  0
 24 29  1  0  0  0  0
 25 30  1  0  0  0  0
 26 31  1  0  0  0  0
 26 32  1  0  0  0  0
M  END
> <BCLConfClusterSize>
1

> <ConfClashScore>
0 

> <ConfOneFourInteractionScore>
-0.94165 

> <ConfScore>
-0.191676 

> <ConfScorePBest>
0.00646676 

> <ConfTolerance>
0.316887 

> <RosettaParamsInstructions>
M  ROOT 3
M  POLY_N_BB 3
M  POLY_CA_BB 4
M  POLY_C_BB 2
M  POLY_O_BB 5
M  POLY_IGNORE 9 10 11 12 13 14 15 16 17 18 
M  POLY_UPPER 6
M  POLY_LOWER 8
M  POLY_CHG 0
M  POLY_PROPERTIES ALPHA_AA L_AA PROTEIN AROMATIC POLYMER 
M  END

$$$$



 32 32  0  0  0  0  0  0  0  0999 V2000
   -0.6796    2.2982   -0.6065 H   0  0  0  1  0  0  0  0  0  0  0  0
   -0.8190    0.4614    0.4299 C   0  0  0  1  0  0  0  0  0  0  0  0
   -2.6682    1.7403   -0.5176 N   0  0  0  1  0  0  0  0  0  0  0  0
   -1.3511    1.8449    0.0924 C   0  0  0  1  0  0  0  0  0  0  0  0
   -1.3787   -0.2522    1.2580 O   0  0  0  1  0  0  0  0  0  0  0  0
    0.2815    0.0863   -0.2283 N   0  0  0  1  0  0  0  0  0  0  0  0
   -3.3640    1.2275   -0.0557 H   0  0  0  1  0  0  0  0  0  0  0  0
   -2.9614    2.3181   -1.6836 C   0  0  0  1  0  0  0  0  0  0  0  0
    0.9037   -1.2135   -0.0254 C   0  0  0  1  0  0  0  0  0  0  0  0
   -4.3716    2.0940   -2.1937 C   0  0  0  1  0  0  0  0  0  0  0  0
   -2.1538    2.9921   -2.3177 O   0  0  0  1  0  0  0  0  0  0  0  0
    0.6837    0.7082   -0.8702 H   0  0  0  1  0  0  0  0  0  0  0  0
    1.3943   -1.2301    0.9253 H   0  0  0  1  0  0  0  0  0  0  0  0
    1.6207   -1.3902   -0.7997 H   0  0  0  1  0  0  0  0  0  0  0  0
    0.1534   -1.9759   -0.0527 H   0  0  0  1  0  0  0  0  0  0  0  0
   -5.0711    2.5385   -1.5169 H   0  0  0  1  0  0  0  0  0  0  0  0
   -4.5623    1.0435   -2.2644 H   0  0  0  1  0  0  0  0  0  0  0  0
   -4.4766    2.5419   -3.1597 H   0  0  0  1  0  0  0  0  0  0  0  0
   -4.1390    3.2984    1.5955 F   0  0  0  1  0  0  0  0  0  0  0  0
   -3.3302    4.3097    1.2252 C   0  0  0  1  0  0  0  0  0  0  0  0
   -1.9734    4.0909    1.0783 C   0  0  0  1  0  0  0  0  0  0  0  0
   -1.1418    5.1304    0.6920 C   0  0  0  1  0  0  0  0  0  0  0  0
   -1.6684    6.3868    0.4589 C   0  0  0  1  0  0  0  0  0  0  0  0
   -3.0292    6.6061    0.6062 C   0  0  0  1  0  0  0  0  0  0  0  0
   -3.8585    5.5697    0.9914 C   0  0  0  1  0  0  0  0  0  0  0  0
   -1.3970    2.7192    1.3387 C   0  0  0  1  0  0  0  0  0  0  0  0
   -0.1214    4.9648    0.5776 H   0  0  0  1  0  0  0  0  0  0  0  0
   -1.0437    7.1676    0.1729 H   0  0  0  1  0  0  0  0  0  0  0  0
   -3.4261    7.5505    0.4269 H   0  0  0  1  0  0  0  0  0  0  0  0
   -4.8789    5.7352    1.1058 H   0  0  0  1  0  0  0  0  0  0  0  0
   -0.4005    2.8337    1.7113 H   0  0  0  1  0  0  0  0  0  0  0  0
   -1.9999    2.2307    2.0755 H   0  0  0  1  0  0  0  0  0  0  0  0
  1  4  1  0  0  0  0
  2  4  1  0  0  0  0
  2  5  2  0  0  0  0
  2  6  1  0  0  0  0
  3  4  1  0  0  0  0
  3  7  1  0  0  0  0
  3  8  1  0  0  0  0
  4 26  1  0  0  0  0
  6  9  1  0  0  0  0
  6 12  1  0  0  0  0
  8 10  1  0  0  0  0
  8 11  2  0  0  0  0
  9 13  1  0  0  0  0
  9 14  1  0  0  0  0
  9 15  1  0  0  0  0
 10 16  1  0  0  0  0
 10 17  1  0  0  0  0
 10 18  1  0  0  0  0
 19 20  1  0  0  0  0
 20 21  4  0  0  0  0
 20 25  4  0  0  0  0
 21 22  4  0  0  0  0
 21 26  1  0  0  0  0
 22 23  4  0  0  0  0
 22 27  1  0  0  0  0
 23 24  4  0  0  0  0
 23 28  1  0  0  0  0
 24 25  4  0  0  0  0
 24 29  1  0  0  0  0
 25 30  1  0  0  0  0
 26 31  1  0  0  0  0
 26 32  1  0  0  0  0
M  END
> <BCLConfClusterSize>
1

> <ConfClashScore>
0 

> <ConfOneFourInteractionScore>
-0.990503 

> <ConfScore>
-0.190337 

> <ConfScorePBest>
0.00643828 

> <ConfTolerance>
0.278737 

> <RosettaParamsInstructions>
M  ROOT 3
M  POLY_N_BB 3
M  POLY_CA_BB 4
M  POLY_C_BB 2
M  POLY_O_BB 5
M  POLY_IGNORE 9 10 11 12 13 14 15 16 17 18 
M  POLY_UPPER 6
M  POLY_LOWER 8
M  POLY_CHG 0
M  POLY_PROPERTIES ALPHA_AA L_AA PROTEIN AROMATIC POLYMER 
M  END

$$$$



 32 32  0  0  0  0  0  0  0  0999 V2000
    0.4184    3.3755    2.2217 H   0  0  0  1  0  0  0  0  0  0  0  0
   -1.0504    3.1962    3.7479 C   0  0  0  1  0  0  0  0  0  0  0  0
    0.1503    1.3612    2.6490 N   0  0  0  1  0  0  0  0  0  0  0  0
   -0.3778    2.7055    2.4705 C   0  0  0  1  0  0  0  0  0  0  0  0
   -1.1537    4.3971    3.9943 O   0  0  0  1  0  0  0  0  0  0  0  0
   -1.5106    2.2439    4.5642 N   0  0  0  1  0  0  0  0  0  0  0  0
   -0.1757    0.6151    2.1036 H   0  0  0  1  0  0  0  0  0  0  0  0
    1.1017    1.1714    3.5866 C   0  0  0  1  0  0  0  0  0  0  0  0
   -2.1656    2.6053    5.8125 C   0  0  0  1  0  0  0  0  0  0  0  0
    1.6064   -0.2402    3.8145 C   0  0  0  1  0  0  0  0  0  0  0  0
    1.5475    2.1125    4.2377 O   0  0  0  1  0  0  0  0  0  0  0  0
   -1.4069    1.3000    4.3219 H   0  0  0  1  0  0  0  0  0  0  0  0
   -2.8018    3.4502    5.6504 H   0  0  0  1  0  0  0  0  0  0  0  0
   -1.4256    2.8516    6.5450 H   0  0  0  1  0  0  0  0  0  0  0  0
   -2.7511    1.7798    6.1598 H   0  0  0  1  0  0  0  0  0  0  0  0
    2.2244   -0.5356    2.9925 H   0  0  0  1  0  0  0  0  0  0  0  0
    0.7740   -0.9080    3.8926 H   0  0  0  1  0  0  0  0  0  0  0  0
    2.1768   -0.2730    4.7191 H   0  0  0  1  0  0  0  0  0  0  0  0
   -4.1392    3.2984    1.5955 F   0  0  0  1  0  0  0  0  0  0  0  0
   -3.3303    4.3096    1.2252 C   0  0  0  1  0  0  0  0  0  0  0  0
   -1.9735    4.0909    1.0783 C   0  0  0  1  0  0  0  0  0  0  0  0
   -1.1416    5.1304    0.6920 C   0  0  0  1  0  0  0  0  0  0  0  0
   -1.6685    6.3867    0.4589 C   0  0  0  1  0  0  0  0  0  0  0  0
   -3.0292    6.6061    0.6062 C   0  0  0  1  0  0  0  0  0  0  0  0
   -3.8584    5.5697    0.9914 C   0  0  0  1  0  0  0  0  0  0  0  0
   -1.3970    2.7193    1.3387 C   0  0  0  1  0  0  0  0  0  0  0  0
   -0.1213    4.9649    0.5776 H   0  0  0  1  0  0  0  0  0  0  0  0
   -1.0439    7.1676    0.1730 H   0  0  0  1  0  0  0  0  0  0  0  0
   -3.4261    7.5505    0.4269 H   0  0  0  1  0  0  0  0  0  0  0  0
   -4.8787    5.7352    1.1058 H   0  0  0  1  0  0  0  0  0  0  0  0
   -2.1974    2.0562    1.5930 H   0  0  0  1  0  0  0  0  0  0  0  0
   -0.9187    2.3757    0.4454 H   0  0  0  1  0  0  0  0  0  0  0  0
  1  4  1  0  0  0  0
  2  4  1  0  0  0  0
  2  5  2  0  0  0  0
  2  6  1  0  0  0  0
  3  4  1  0  0  0  0
  3  7  1  0  0  0  0
  3  8  1  0  0  0  0
  4 26  1  0  0  0  0
  6  9  1  0  0  0  0
  6 12  1  0  0  0  0
  8 10  1  0  0  0  0
  8 11  2  0  0  0  0
  9 13  1  0  0  0  0
  9 14  1  0  0  0  0
  9 15  1  0  0  0  0
 10 16  1  0  0  0  0
 10 17  1  0  0  0  0
 10 18  1  0  0  0  0
 19 20  1  0  0  0  0
 20 21  4  0  0  0  0
 20 25  4  0  0  0  0
 21 22  4  0  0  0  0
 21 26  1  0  0  0  0
 22 23  4  0  0  0  0
 22 27  1  0  0  0  0
 23 24  4  0  0  0  0
 23 28  1  0  0  0  0
 24 25  4  0  0  0  0
 24 29  1  0  0  0  0
 25 30  1  0  0  0  0
 26 31  1  0  0  0  0
 26 32  1  0  0  0  0
M  END
> <BCLConfClusterSize>
1

> <ConfClashScore>
0 

> <ConfOneFourInteractionScore>
-0.960318 

> <ConfScore>
-0.185106 

> <ConfScorePBest>
0.0064098 

> <ConfTolerance>
0.343303 

> <RosettaParamsInstructions>
M  ROOT 3
M  POLY_N_BB 3
M  POLY_CA_BB 4
M  POLY_C_BB 2
M  POLY_O_BB 5
M  POLY_IGNORE 9 10 11 12 13 14 15 16 17 18 
M  POLY_UPPER 6
M  POLY_LOWER 8
M  POLY_CHG 0
M  POLY_PROPERTIES ALPHA_AA L_AA PROTEIN AROMATIC POLYMER 
M  END

$$$$



 32 32  0  0  0  0  0  0  0  0999 V2000
   -1.7233    2.5725    3.4112 H   0  0  0  1  0  0  0  0  0  0  0  0
   -0.2185    1.1898    2.9378 C   0  0  0  1  0  0  0  0  0  0  0  0
    0.0074    3.6427    3.1088 N   0  0  0  1  0  0  0  0  0  0  0  0
   -0.8755    2.5398    2.7593 C   0  0  0  1  0  0  0  0  0  0  0  0
    1.0063    1.0760    2.9141 O   0  0  0  1  0  0  0  0  0  0  0  0
   -1.0070    0.1270    3.1216 N   0  0  0  1  0  0  0  0  0  0  0  0
    0.5814    4.0275    2.4139 H   0  0  0  1  0  0  0  0  0  0  0  0
    0.0631    4.1519    4.3519 C   0  0  0  1  0  0  0  0  0  0  0  0
   -0.4738   -1.2164    3.2916 C   0  0  0  1  0  0  0  0  0  0  0  0
    0.9301    5.3688    4.5833 C   0  0  0  1  0  0  0  0  0  0  0  0
   -0.5718    3.6446    5.2755 O   0  0  0  1  0  0  0  0  0  0  0  0
   -1.9782    0.2566    3.1428 H   0  0  0  1  0  0  0  0  0  0  0  0
    0.4003   -1.1785    3.9075 H   0  0  0  1  0  0  0  0  0  0  0  0
   -0.2184   -1.6221    2.3350 H   0  0  0  1  0  0  0  0  0  0  0  0
   -1.2113   -1.8363    3.7571 H   0  0  0  1  0  0  0  0  0  0  0  0
    0.3755    6.1043    5.1276 H   0  0  0  1  0  0  0  0  0  0  0  0
    1.2323    5.7756    3.6409 H   0  0  0  1  0  0  0  0  0  0  0  0
    1.7962    5.0876    5.1452 H   0  0  0  1  0  0  0  0  0  0  0  0
   -4.1398    3.3019    1.6037 F   0  0  0  1  0  0  0  0  0  0  0  0
   -3.3319    4.3114    1.2268 C   0  0  0  1  0  0  0  0  0  0  0  0
   -1.9715    4.0914    1.0765 C   0  0  0  1  0  0  0  0  0  0  0  0
   -1.1416    5.1287    0.6948 C   0  0  0  1  0  0  0  0  0  0  0  0
   -1.6705    6.3878    0.4572 C   0  0  0  1  0  0  0  0  0  0  0  0
   -3.0268    6.6073    0.6071 C   0  0  0  1  0  0  0  0  0  0  0  0
   -3.8590    5.5669    0.9899 C   0  0  0  1  0  0  0  0  0  0  0  0
   -1.3961    2.7180    1.3297 C   0  0  0  1  0  0  0  0  0  0  0  0
   -0.1204    4.9646    0.5860 H   0  0  0  1  0  0  0  0  0  0  0  0
   -1.0467    7.1673    0.1662 H   0  0  0  1  0  0  0  0  0  0  0  0
   -3.4230    7.5529    0.4327 H   0  0  0  1  0  0  0  0  0  0  0  0
   -4.8802    5.7311    1.0987 H   0  0  0  1  0  0  0  0  0  0  0  0
   -2.1605    1.9905    1.1525 H   0  0  0  1  0  0  0  0  0  0  0  0
   -0.5858    2.5575    0.6497 H   0  0  0  1  0  0  0  0  0  0  0  0
  1  4  1  0  0  0  0
  2  4  1  0  0  0  0
  2  5  2  0  0  0  0
  2  6  1  0  0  0  0
  3  4  1  0  0  0  0
  3  7  1  0  0  0  0
  3  8  1  0  0  0  0
  4 26  1  0  0  0  0
  6  9  1  0  0  0  0
  6 12  1  0  0  0  0
  8 10  1  0  0  0  0
  8 11  2  0  0  0  0
  9 13  1  0  0  0  0
  9 14  1  0  0  0  0
  9 15  1  0  0  0  0
 10 16  1  0  0  0  0
 10 17  1  0  0  0  0
 10 18  1  0  0  0  0
 19 20  1  0  0  0  0
 20 21  4  0  0  0  0
 20 25  4  0  0  0  0
 21 22  4  0  0  0  0
 21 26  1  0  0  0  0
 22 23  4  0  0  0  0
 22 27  1  0  0  0  0
 23 24  4  0  0  0  0
 23 28  1  0  0  0  0
 24 25  4  0  0  0  0
 24 29  1  0  0  0  0
 25 30  1  0  0  0  0
 26 31  1  0  0  0  0
 26 32  1  0  0  0  0
M  END
> <BCLConfClusterSize>
1

> <ConfClashScore>
0 

> <ConfOneFourInteractionScore>
-0.985807 

> <ConfScore>
-0.18392 

> <ConfScorePBest>
0.00638132 

> <ConfTolerance>
0.330504 

> <RosettaParamsInstructions>
M  ROOT 3
M  POLY_N_BB 3
M  POLY_CA_BB 4
M  POLY_C_BB 2
M  POLY_O_BB 5
M  POLY_IGNORE 9 10 11 12 13 14 15 16 17 18 
M  POLY_UPPER 6
M  POLY_LOWER 8
M  POLY_CHG 0
M  POLY_PROPERTIES ALPHA_AA L_AA PROTEIN AROMATIC POLYMER 
M  END

$$$$



 32 32  0  0  0  0  0  0  0  0999 V2000
   -2.0052    2.7541    3.3541 H   0  0  0  1  0  0  0  0  0  0  0  0
   -0.9275    0.9737    3.1018 C   0  0  0  1  0  0  0  0  0  0  0  0
   -0.0137    3.2410    3.3349 N   0  0  0  1  0  0  0  0  0  0  0  0
   -1.1259    2.4543    2.8231 C   0  0  0  1  0  0  0  0  0  0  0  0
    0.1926    0.5036    3.2823 O   0  0  0  1  0  0  0  0  0  0  0  0
   -2.0404    0.2352    3.1354 N   0  0  0  1  0  0  0  0  0  0  0  0
    0.8527    3.2181    2.8776 H   0  0  0  1  0  0  0  0  0  0  0  0
   -0.1714    3.9943    4.4270 C   0  0  0  1  0  0  0  0  0  0  0  0
   -2.0089   -1.2120    3.2855 C   0  0  0  1  0  0  0  0  0  0  0  0
    1.0907    4.6303    4.9764 C   0  0  0  1  0  0  0  0  0  0  0  0
   -1.2628    4.1722    4.9662 O   0  0  0  1  0  0  0  0  0  0  0  0
   -2.9082    0.6837    3.0563 H   0  0  0  1  0  0  0  0  0  0  0  0
   -2.4402   -1.4830    4.2264 H   0  0  0  1  0  0  0  0  0  0  0  0
   -0.9952   -1.5523    3.2468 H   0  0  0  1  0  0  0  0  0  0  0  0
   -2.5680   -1.6647    2.4934 H   0  0  0  1  0  0  0  0  0  0  0  0
    1.7218    3.8718    5.3904 H   0  0  0  1  0  0  0  0  0  0  0  0
    0.8320    5.3342    5.7396 H   0  0  0  1  0  0  0  0  0  0  0  0
    1.6090    5.1335    4.1871 H   0  0  0  1  0  0  0  0  0  0  0  0
   -4.1391    3.2983    1.5955 F   0  0  0  1  0  0  0  0  0  0  0  0
   -3.3303    4.3096    1.2252 C   0  0  0  1  0  0  0  0  0  0  0  0
   -1.9735    4.0910    1.0783 C   0  0  0  1  0  0  0  0  0  0  0  0
   -1.1416    5.1304    0.6920 C   0  0  0  1  0  0  0  0  0  0  0  0
   -1.6684    6.3867    0.4589 C   0  0  0  1  0  0  0  0  0  0  0  0
   -3.0292    6.6062    0.6062 C   0  0  0  1  0  0  0  0  0  0  0  0
   -3.8584    5.5697    0.9914 C   0  0  0  1  0  0  0  0  0  0  0  0
   -1.3971    2.7194    1.3387 C   0  0  0  1  0  0  0  0  0  0  0  0
   -0.1213    4.9648    0.5776 H   0  0  0  1  0  0  0  0  0  0  0  0
   -1.0438    7.1676    0.1730 H   0  0  0  1  0  0  0  0  0  0  0  0
   -3.4261    7.5506    0.4269 H   0  0  0  1  0  0  0  0  0  0  0  0
   -4.8788    5.7352    1.1058 H   0  0  0  1  0  0  0  0  0  0  0  0
   -2.0897    1.9856    0.9827 H   0  0  0  1  0  0  0  0  0  0  0  0
   -0.4752    2.6300    0.8028 H   0  0  0  1  0  0  0  0  0  0  0  0
  1  4  1  0  0  0  0
  2  4  1  0  0  0  0
  2  5  2  0  0  0  0
  2  6  1  0  0  0  0
  3  4  1  0  0  0  0
  3  7  1  0  0  0  0
  3  8  1  0  0  0  0
  4 26  1  0  0  0  0
  6  9  1  0  0  0  0
  6 12  1  0  0  0  0
  8 10  1  0  0  0  0
  8 11  2  0  0  0  0
  9 13  1  0  0  0  0
  9 14  1  0  0  0  0
  9 15  1  0  0  0  0
 10 16  1  0  0  0  0
 10 17  1  0  0  0  0
 10 18  1  0  0  0  0
 19 20  1  0  0  0  0
 20 21  4  0  0  0  0
 20 25  4  0  0  0  0
 21 22  4  0  0  0  0
 21 26  1  0  0  0  0
 22 23  4  0  0  0  0
 22 27  1  0  0  0  0
 23 24  4  0  0  0  0
 23 28  1  0  0  0  0
 24 25  4  0  0  0  0
 24 29  1  0  0  0  0
 25 30  1  0  0  0  0
 26 31  1  0  0  0  0
 26 32  1  0  0  0  0
M  END
> <BCLConfClusterSize>
1

> <ConfClashScore>
0 

> <ConfOneFourInteractionScore>
-0.982002 

> <ConfScore>
-0.183604 

> <ConfScorePBest>
0.00635284 

> <ConfTolerance>
0.37364 

> <RosettaParamsInstructions>
M  ROOT 3
M  POLY_N_BB 3
M  POLY_CA_BB 4
M  POLY_C_BB 2
M  POLY_O_BB 5
M  POLY_IGNORE 9 10 11 12 13 14 15 16 17 18 
M  POLY_UPPER 6
M  POLY_LOWER 8
M  POLY_CHG 0
M  POLY_PROPERTIES ALPHA_AA L_AA PROTEIN AROMATIC POLYMER 
M  END

$$$$



 32 32  0  0  0  0  0  0  0  0999 V2000
   -0.6074    2.4217   -0.5996 H   0  0  0  1  0  0  0  0  0  0  0  0
   -0.4243    0.5974    0.4186 C   0  0  0  1  0  0  0  0  0  0  0  0
   -2.4812    1.5763   -0.5340 N   0  0  0  1  0  0  0  0  0  0  0  0
   -1.1967    1.8551    0.0907 C   0  0  0  1  0  0  0  0  0  0  0  0
    0.6728    0.6570    0.9722 O   0  0  0  1  0  0  0  0  0  0  0  0
   -0.9737   -0.5892    0.0863 N   0  0  0  1  0  0  0  0  0  0  0  0
   -3.2878    1.5761    0.0227 H   0  0  0  1  0  0  0  0  0  0  0  0
   -2.5992    1.3206   -1.8400 C   0  0  0  1  0  0  0  0  0  0  0  0
   -0.2217   -1.8209    0.2743 C   0  0  0  1  0  0  0  0  0  0  0  0
   -4.0129    1.1035   -2.3437 C   0  0  0  1  0  0  0  0  0  0  0  0
   -1.6359    1.2612   -2.5995 O   0  0  0  1  0  0  0  0  0  0  0  0
   -1.8812   -0.6218   -0.2824 H   0  0  0  1  0  0  0  0  0  0  0  0
    0.6551   -1.6192    0.8535 H   0  0  0  1  0  0  0  0  0  0  0  0
    0.0635   -2.2134   -0.6793 H   0  0  0  1  0  0  0  0  0  0  0  0
   -0.8309   -2.5357    0.7870 H   0  0  0  1  0  0  0  0  0  0  0  0
   -4.6741    1.7914   -1.8595 H   0  0  0  1  0  0  0  0  0  0  0  0
   -4.3189    0.1016   -2.1258 H   0  0  0  1  0  0  0  0  0  0  0  0
   -4.0431    1.2642   -3.4011 H   0  0  0  1  0  0  0  0  0  0  0  0
   -4.1398    3.3019    1.6037 F   0  0  0  1  0  0  0  0  0  0  0  0
   -3.3319    4.3114    1.2268 C   0  0  0  1  0  0  0  0  0  0  0  0
   -1.9715    4.0914    1.0765 C   0  0  0  1  0  0  0  0  0  0  0  0
   -1.1416    5.1287    0.6948 C   0  0  0  1  0  0  0  0  0  0  0  0
   -1.6705    6.3878    0.4572 C   0  0  0  1  0  0  0  0  0  0  0  0
   -3.0268    6.6073    0.6071 C   0  0  0  1  0  0  0  0  0  0  0  0
   -3.8590    5.5669    0.9899 C   0  0  0  1  0  0  0  0  0  0  0  0
   -1.3961    2.7180    1.3297 C   0  0  0  1  0  0  0  0  0  0  0  0
   -0.1204    4.9646    0.5860 H   0  0  0  1  0  0  0  0  0  0  0  0
   -1.0467    7.1673    0.1662 H   0  0  0  1  0  0  0  0  0  0  0  0
   -3.4230    7.5529    0.4327 H   0  0  0  1  0  0  0  0  0  0  0  0
   -4.8802    5.7311    1.0987 H   0  0  0  1  0  0  0  0  0  0  0  0
   -0.4444    2.8410    1.8030 H   0  0  0  1  0  0  0  0  0  0  0  0
   -2.0590    2.1991    1.9902 H   0  0  0  1  0  0  0  0  0  0  0  0
  1  4  1  0  0  0  0
  2  4  1  0  0  0  0
  2  5  2  0  0  0  0
  2  6  1  0  0  0  0
  3  4  1  0  0  0  0
  3  7  1  0  0  0  0
  3  8  1  0  0  0  0
  4 26  1  0  0  0  0
  6  9  1  0  0  0  0
  6 12  1  0  0  0  0
  8 10  1  0  0  0  0
  8 11  2  0  0  0  0
  9 13  1  0  0  0  0
  9 14  1  0  0  0  0
  9 15  1  0  0  0  0
 10 16  1  0  0  0  0
 10 17  1  0  0  0  0
 10 18  1  0  0  0  0
 19 20  1  0  0  0  0
 20 21  4  0  0  0  0
 20 25  4  0  0  0  0
 21 22  4  0  0  0  0
 21 26  1  0  0  0  0
 22 23  4  0  0  0  0
 22 27  1  0  0  0  0
 23 24  4  0  0  0  0
 23 28  1  0  0  0  0
 24 25  4  0  0  0  0
 24 29  1  0  0  0  0
 25 30  1  0  0  0  0
 26 31  1  0  0  0  0
 26 32  1  0  0  0  0
M  END
> <BCLConfClusterSize>
1

> <ConfClashScore>
0 

> <ConfOneFourInteractionScore>
-0.960318 

> <ConfScore>
-0.182699 

> <ConfScorePBest>
0.00632436 

> <ConfTolerance>
0.289714 

> <RosettaParamsInstructions>
M  ROOT 3
M  POLY_N_BB 3
M  POLY_CA_BB 4
M  POLY_C_BB 2
M  POLY_O_BB 5
M  POLY_IGNORE 9 10 11 12 13 14 15 16 17 18 
M  POLY_UPPER 6
M  POLY_LOWER 8
M  POLY_CHG 0
M  POLY_PROPERTIES ALPHA_AA L_AA PROTEIN AROMATIC POLYMER 
M  END

$$$$



 32 32  0  0  0  0  0  0  0  0999 V2000
   -0.5457    3.1579    3.2328 H   0  0  0  1  0  0  0  0  0  0  0  0
   -2.5508    2.5267    3.5210 C   0  0  0  1  0  0  0  0  0  0  0  0
   -0.6337    1.0973    2.9945 N   0  0  0  1  0  0  0  0  0  0  0  0
   -1.2061    2.4239    2.8206 C   0  0  0  1  0  0  0  0  0  0  0  0
   -2.8788    3.5562    4.1094 O   0  0  0  1  0  0  0  0  0  0  0  0
   -3.3718    1.4569    3.4779 N   0  0  0  1  0  0  0  0  0  0  0  0
   -0.3086    0.5991    2.2157 H   0  0  0  1  0  0  0  0  0  0  0  0
   -0.5498    0.5526    4.2239 C   0  0  0  1  0  0  0  0  0  0  0  0
   -4.7138    1.5429    4.0341 C   0  0  0  1  0  0  0  0  0  0  0  0
    0.1774   -0.7753    4.3078 C   0  0  0  1  0  0  0  0  0  0  0  0
   -1.0265    1.0838    5.2259 O   0  0  0  1  0  0  0  0  0  0  0  0
   -3.0637    0.6201    3.0713 H   0  0  0  1  0  0  0  0  0  0  0  0
   -4.7116    1.1602    5.0333 H   0  0  0  1  0  0  0  0  0  0  0  0
   -5.3862    0.9667    3.4333 H   0  0  0  1  0  0  0  0  0  0  0  0
   -5.0305    2.5649    4.0445 H   0  0  0  1  0  0  0  0  0  0  0  0
   -0.0384   -1.3564    3.4357 H   0  0  0  1  0  0  0  0  0  0  0  0
   -0.1477   -1.3053    5.1786 H   0  0  0  1  0  0  0  0  0  0  0  0
    1.2314   -0.6013    4.3683 H   0  0  0  1  0  0  0  0  0  0  0  0
   -4.1391    3.2983    1.5955 F   0  0  0  1  0  0  0  0  0  0  0  0
   -3.3303    4.3096    1.2252 C   0  0  0  1  0  0  0  0  0  0  0  0
   -1.9735    4.0910    1.0783 C   0  0  0  1  0  0  0  0  0  0  0  0
   -1.1416    5.1304    0.6920 C   0  0  0  1  0  0  0  0  0  0  0  0
   -1.6684    6.3867    0.4589 C   0  0  0  1  0  0  0  0  0  0  0  0
   -3.0292    6.6062    0.6062 C   0  0  0  1  0  0  0  0  0  0  0  0
   -3.8584    5.5697    0.9914 C   0  0  0  1  0  0  0  0  0  0  0  0
   -1.3971    2.7194    1.3387 C   0  0  0  1  0  0  0  0  0  0  0  0
   -0.1213    4.9648    0.5776 H   0  0  0  1  0  0  0  0  0  0  0  0
   -1.0438    7.1676    0.1730 H   0  0  0  1  0  0  0  0  0  0  0  0
   -3.4261    7.5506    0.4269 H   0  0  0  1  0  0  0  0  0  0  0  0
   -4.8788    5.7352    1.1058 H   0  0  0  1  0  0  0  0  0  0  0  0
   -2.0609    1.9874    0.9283 H   0  0  0  1  0  0  0  0  0  0  0  0
   -0.4462    2.6516    0.8527 H   0  0  0  1  0  0  0  0  0  0  0  0
  1  4  1  0  0  0  0
  2  4  1  0  0  0  0
  2  5  2  0  0  0  0
  2  6  1  0  0  0  0
  3  4  1  0  0  0  0
  3  7  1  0  0  0  0
  3  8  1  0  0  0  0
  4 26  1  0  0  0  0
  6  9  1  0  0  0  0
  6 12  1  0  0  0  0
  8 10  1  0  0  0  0
  8 11  2  0  0  0  0
  9 13  1  0  0  0  0
  9 14  1  0  0  0  0
  9 15  1  0  0  0  0
 10 16  1  0  0  0  0
 10 17  1  0  0  0  0
 10 18  1  0  0  0  0
 19 20  1  0  0  0  0
 20 21  4  0  0  0  0
 20 25  4  0  0  0  0
 21 22  4  0  0  0  0
 21 26  1  0  0  0  0
 22 23  4  0  0  0  0
 22 27  1  0  0  0  0
 23 24  4  0  0  0  0
 23 28  1  0  0  0  0
 24 25  4  0  0  0  0
 24 29  1  0  0  0  0
 25 30  1  0  0  0  0
 26 31  1  0  0  0  0
 26 32  1  0  0  0  0
M  END
> <BCLConfClusterSize>
1

> <ConfClashScore>
0 

> <ConfOneFourInteractionScore>
-0.960318 

> <ConfScore>
-0.181919 

> <ConfScorePBest>
0.00629587 

> <ConfTolerance>
0.398751 

> <RosettaParamsInstructions>
M  ROOT 3
M  POLY_N_BB 3
M  POLY_CA_BB 4
M  POLY_C_BB 2
M  POLY_O_BB 5
M  POLY_IGNORE 9 10 11 12 13 14 15 16 17 18 
M  POLY_UPPER 6
M  POLY_LOWER 8
M  POLY_CHG 0
M  POLY_PROPERTIES ALPHA_AA L_AA PROTEIN AROMATIC POLYMER 
M  END

$$$$



 32 32  0  0  0  0  0  0  0  0999 V2000
   -1.2416    2.1777   -0.7144 H   0  0  0  1  0  0  0  0  0  0  0  0
   -0.8951    0.4505    0.4446 C   0  0  0  1  0  0  0  0  0  0  0  0
   -3.0762    1.5526   -0.0014 N   0  0  0  1  0  0  0  0  0  0  0  0
   -1.6441    1.7412    0.1757 C   0  0  0  1  0  0  0  0  0  0  0  0
    0.3144    0.4417    0.6697 O   0  0  0  1  0  0  0  0  0  0  0  0
   -1.6701   -0.6372    0.4105 N   0  0  0  1  0  0  0  0  0  0  0  0
   -3.6255    1.4690    0.8059 H   0  0  0  1  0  0  0  0  0  0  0  0
   -3.6976    1.4850   -1.1798 C   0  0  0  1  0  0  0  0  0  0  0  0
   -1.1934   -1.9450    0.8349 C   0  0  0  1  0  0  0  0  0  0  0  0
   -5.2183    1.5593   -1.1313 C   0  0  0  1  0  0  0  0  0  0  0  0
   -3.0977    1.3700   -2.2478 O   0  0  0  1  0  0  0  0  0  0  0  0
   -2.5917   -0.5514    0.0884 H   0  0  0  1  0  0  0  0  0  0  0  0
   -0.3566   -2.2327    0.2334 H   0  0  0  1  0  0  0  0  0  0  0  0
   -1.9776   -2.6642    0.7218 H   0  0  0  1  0  0  0  0  0  0  0  0
   -0.8956   -1.8999    1.8616 H   0  0  0  1  0  0  0  0  0  0  0  0
   -5.5176    2.2739   -0.3933 H   0  0  0  1  0  0  0  0  0  0  0  0
   -5.6142    0.5981   -0.8778 H   0  0  0  1  0  0  0  0  0  0  0  0
   -5.5913    1.8581   -2.0886 H   0  0  0  1  0  0  0  0  0  0  0  0
   -4.1397    3.3020    1.6037 F   0  0  0  1  0  0  0  0  0  0  0  0
   -3.3318    4.3116    1.2268 C   0  0  0  1  0  0  0  0  0  0  0  0
   -1.9715    4.0913    1.0765 C   0  0  0  1  0  0  0  0  0  0  0  0
   -1.1417    5.1287    0.6949 C   0  0  0  1  0  0  0  0  0  0  0  0
   -1.6704    6.3879    0.4572 C   0  0  0  1  0  0  0  0  0  0  0  0
   -3.0268    6.6072    0.6071 C   0  0  0  1  0  0  0  0  0  0  0  0
   -3.8591    5.5669    0.9899 C   0  0  0  1  0  0  0  0  0  0  0  0
   -1.3962    2.7179    1.3298 C   0  0  0  1  0  0  0  0  0  0  0  0
   -0.1205    4.9645    0.5860 H   0  0  0  1  0  0  0  0  0  0  0  0
   -1.0466    7.1674    0.1661 H   0  0  0  1  0  0  0  0  0  0  0  0
   -3.4230    7.5528    0.4327 H   0  0  0  1  0  0  0  0  0  0  0  0
   -4.8803    5.7310    1.0988 H   0  0  0  1  0  0  0  0  0  0  0  0
   -0.3403    2.8125    1.4750 H   0  0  0  1  0  0  0  0  0  0  0  0
   -1.8443    2.3190    2.2158 H   0  0  0  1  0  0  0  0  0  0  0  0
  1  4  1  0  0  0  0
  2  4  1  0  0  0  0
  2  5  2  0  0  0  0
  2  6  1  0  0  0  0
  3  4  1  0  0  0  0
  3  7  1  0  0  0  0
  3  8  1  0  0  0  0
  4 26  1  0  0  0  0
  6  9  1  0  0  0  0
  6 12  1  0  0  0  0
  8 10  1  0  0  0  0
  8 11  2  0  0  0  0
  9 13  1  0  0  0  0
  9 14  1  0  0  0  0
  9 15  1  0  0  0  0
 10 16  1  0  0  0  0
 10 17  1  0  0  0  0
 10 18  1  0  0  0  0
 19 20  1  0  0  0  0
 20 21  4  0  0  0  0
 20 25  4  0  0  0  0
 21 22  4  0  0  0  0
 21 26  1  0  0  0  0
 22 23  4  0  0  0  0
 22 27  1  0  0  0  0
 23 24  4  0  0  0  0
 23 28  1  0  0  0  0
 24 25  4  0  0  0  0
 24 29  1  0  0  0  0
 25 30  1  0  0  0  0
 26 31  1  0  0  0  0
 26 32  1  0  0  0  0
M  END
> <BCLConfClusterSize>
1

> <ConfClashScore>
0 

> <ConfOneFourInteractionScore>
-0.937775 

> <ConfScore>
-0.177978 

> <ConfScorePBest>
0.00626739 

> <ConfTolerance>
0.305922 

> <RosettaParamsInstructions>
M  ROOT 3
M  POLY_N_BB 3
M  POLY_CA_BB 4
M  POLY_C_BB 2
M  POLY_O_BB 5
M  POLY_IGNORE 9 10 11 12 13 14 15 16 17 18 
M  POLY_UPPER 6
M  POLY_LOWER 8
M  POLY_CHG 0
M  POLY_PROPERTIES ALPHA_AA L_AA PROTEIN AROMATIC POLYMER 
M  END

$$$$



 32 32  0  0  0  0  0  0  0  0999 V2000
    0.2504    3.0484    0.0417 H   0  0  0  1  0  0  0  0  0  0  0  0
    0.1218    0.9667    0.3833 C   0  0  0  1  0  0  0  0  0  0  0  0
   -1.3101    2.2896   -1.0829 N   0  0  0  1  0  0  0  0  0  0  0  0
   -0.5266    2.3198    0.1431 C   0  0  0  1  0  0  0  0  0  0  0  0
   -0.2976   -0.0494   -0.1691 O   0  0  0  1  0  0  0  0  0  0  0  0
    1.1613    0.9620    1.2227 N   0  0  0  1  0  0  0  0  0  0  0  0
   -2.0686    1.6743   -1.1634 H   0  0  0  1  0  0  0  0  0  0  0  0
   -0.9976    3.0991   -2.0988 C   0  0  0  1  0  0  0  0  0  0  0  0
    1.7627   -0.2710    1.7085 C   0  0  0  1  0  0  0  0  0  0  0  0
   -1.9963    3.1409   -3.2390 C   0  0  0  1  0  0  0  0  0  0  0  0
    0.0301    3.7748   -2.1252 O   0  0  0  1  0  0  0  0  0  0  0  0
    1.5316    1.8186    1.5217 H   0  0  0  1  0  0  0  0  0  0  0  0
    1.5974   -1.0533    0.9974 H   0  0  0  1  0  0  0  0  0  0  0  0
    1.3183   -0.5399    2.6439 H   0  0  0  1  0  0  0  0  0  0  0  0
    2.8145   -0.1264    1.8412 H   0  0  0  1  0  0  0  0  0  0  0  0
   -2.9538    3.4372   -2.8644 H   0  0  0  1  0  0  0  0  0  0  0  0
   -2.0719    2.1700   -3.6824 H   0  0  0  1  0  0  0  0  0  0  0  0
   -1.6680    3.8450   -3.9748 H   0  0  0  1  0  0  0  0  0  0  0  0
   -4.1392    3.2984    1.5955 F   0  0  0  1  0  0  0  0  0  0  0  0
   -3.3303    4.3096    1.2252 C   0  0  0  1  0  0  0  0  0  0  0  0
   -1.9735    4.0909    1.0783 C   0  0  0  1  0  0  0  0  0  0  0  0
   -1.1416    5.1304    0.6920 C   0  0  0  1  0  0  0  0  0  0  0  0
   -1.6685    6.3867    0.4589 C   0  0  0  1  0  0  0  0  0  0  0  0
   -3.0292    6.6061    0.6062 C   0  0  0  1  0  0  0  0  0  0  0  0
   -3.8584    5.5697    0.9914 C   0  0  0  1  0  0  0  0  0  0  0  0
   -1.3970    2.7193    1.3387 C   0  0  0  1  0  0  0  0  0  0  0  0
   -0.1213    4.9649    0.5776 H   0  0  0  1  0  0  0  0  0  0  0  0
   -1.0439    7.1676    0.1730 H   0  0  0  1  0  0  0  0  0  0  0  0
   -3.4261    7.5505    0.4269 H   0  0  0  1  0  0  0  0  0  0  0  0
   -4.8787    5.7352    1.1058 H   0  0  0  1  0  0  0  0  0  0  0  0
   -0.8008    2.7417    2.2269 H   0  0  0  1  0  0  0  0  0  0  0  0
   -2.1907    2.0118    1.4590 H   0  0  0  1  0  0  0  0  0  0  0  0
  1  4  1  0  0  0  0
  2  4  1  0  0  0  0
  2  5  2  0  0  0  0
  2  6  1  0  0  0  0
  3  4  1  0  0  0  0
  3  7  1  0  0  0  0
  3  8  1  0  0  0  0
  4 26  1  0  0  0  0
  6  9  1  0  0  0  0
  6 12  1  0  0  0  0
  8 10  1  0  0  0  0
  8 11  2  0  0  0  0
  9 13  1  0  0  0  0
  9 14  1  0  0  0  0
  9 15  1  0  0  0  0
 10 16  1  0  0  0  0
 10 17  1  0  0  0  0
 10 18  1  0  0  0  0
 19 20  1  0  0  0  0
 20 21  4  0  0  0  0
 20 25  4  0  0  0  0
 21 22  4  0  0  0  0
 21 26  1  0  0  0  0
 22 23  4  0  0  0  0
 22 27  1  0  0  0  0
 23 24  4  0  0  0  0
 23 28  1  0  0  0  0
 24 25  4  0  0  0  0
 24 29  1  0  0  0  0
 25 30  1  0  0  0  0
 26 31  1  0  0  0  0
 26 32  1  0  0  0  0
M  END
> <BCLConfClusterSize>
1

> <ConfClashScore>
0 

> <ConfOneFourInteractionScore>
-0.990503 

> <ConfScore>
-0.175453 

> <ConfScorePBest>
0.00623891 

> <ConfTolerance>
0.326642 

> <RosettaParamsInstructions>
M  ROOT 3
M  POLY_N_BB 3
M  POLY_CA_BB 4
M  POLY_C_BB 2
M  POLY_O_BB 5
M  POLY_IGNORE 9 10 11 12 13 14 15 16 17 18 
M  POLY_UPPER 6
M  POLY_LOWER 8
M  POLY_CHG 0
M  POLY_PROPERTIES ALPHA_AA L_AA PROTEIN AROMATIC POLYMER 
M  END

$$$$



 32 32  0  0  0  0  0  0  0  0999 V2000
   -0.7281    2.4290   -0.6299 H   0  0  0  1  0  0  0  0  0  0  0  0
   -0.3334    0.6407    0.3919 C   0  0  0  1  0  0  0  0  0  0  0  0
   -2.5063    1.4186   -0.4580 N   0  0  0  1  0  0  0  0  0  0  0  0
   -1.2286    1.8369    0.1076 C   0  0  0  1  0  0  0  0  0  0  0  0
   -0.8241   -0.4355    0.7303 O   0  0  0  1  0  0  0  0  0  0  0  0
    0.9920    0.8440    0.3448 N   0  0  0  1  0  0  0  0  0  0  0  0
   -3.3221    1.7215   -0.0074 H   0  0  0  1  0  0  0  0  0  0  0  0
   -2.6535    0.6245   -1.5851 C   0  0  0  1  0  0  0  0  0  0  0  0
    1.9511   -0.2113    0.6349 C   0  0  0  1  0  0  0  0  0  0  0  0
   -4.0296    0.1162   -1.9512 C   0  0  0  1  0  0  0  0  0  0  0  0
   -1.6649    0.3619   -2.2455 O   0  0  0  1  0  0  0  0  0  0  0  0
    1.3258    1.7342    0.1069 H   0  0  0  1  0  0  0  0  0  0  0  0
    1.5328   -0.8871    1.3513 H   0  0  0  1  0  0  0  0  0  0  0  0
    2.8462    0.2199    1.0321 H   0  0  0  1  0  0  0  0  0  0  0  0
    2.1795   -0.7426   -0.2653 H   0  0  0  1  0  0  0  0  0  0  0  0
   -4.6008   -0.0414   -1.0603 H   0  0  0  1  0  0  0  0  0  0  0  0
   -3.9383   -0.8072   -2.4841 H   0  0  0  1  0  0  0  0  0  0  0  0
   -4.5234    0.8374   -2.5683 H   0  0  0  1  0  0  0  0  0  0  0  0
   -4.1391    3.2985    1.5955 F   0  0  0  1  0  0  0  0  0  0  0  0
   -3.3302    4.3097    1.2252 C   0  0  0  1  0  0  0  0  0  0  0  0
   -1.9734    4.0909    1.0783 C   0  0  0  1  0  0  0  0  0  0  0  0
   -1.1417    5.1304    0.6920 C   0  0  0  1  0  0  0  0  0  0  0  0
   -1.6684    6.3868    0.4589 C   0  0  0  1  0  0  0  0  0  0  0  0
   -3.0292    6.6060    0.6062 C   0  0  0  1  0  0  0  0  0  0  0  0
   -3.8585    5.5697    0.9914 C   0  0  0  1  0  0  0  0  0  0  0  0
   -1.3970    2.7192    1.3387 C   0  0  0  1  0  0  0  0  0  0  0  0
   -0.1214    4.9649    0.5776 H   0  0  0  1  0  0  0  0  0  0  0  0
   -1.0438    7.1677    0.1729 H   0  0  0  1  0  0  0  0  0  0  0  0
   -3.4261    7.5504    0.4269 H   0  0  0  1  0  0  0  0  0  0  0  0
   -4.8789    5.7352    1.1058 H   0  0  0  1  0  0  0  0  0  0  0  0
   -0.4343    2.8457    1.7884 H   0  0  0  1  0  0  0  0  0  0  0  0
   -2.0464    2.2125    2.0216 H   0  0  0  1  0  0  0  0  0  0  0  0
  1  4  1  0  0  0  0
  2  4  1  0  0  0  0
  2  5  2  0  0  0  0
  2  6  1  0  0  0  0
  3  4  1  0  0  0  0
  3  7  1  0  0  0  0
  3  8  1  0  0  0  0
  4 26  1  0  0  0  0
  6  9  1  0  0  0  0
  6 12  1  0  0  0  0
  8 10  1  0  0  0  0
  8 11  2  0  0  0  0
  9 13  1  0  0  0  0
  9 14  1  0  0  0  0
  9 15  1  0  0  0  0
 10 16  1  0  0  0  0
 10 17  1  0  0  0  0
 10 18  1  0  0  0  0
 19 20  1  0  0  0  0
 20 21  4  0  0  0  0
 20 25  4  0  0  0  0
 21 22  4  0  0  0  0
 21 26  1  0  0  0  0
 22 23  4  0  0  0  0
 22 27  1  0  0  0  0
 23 24  4  0  0  0  0
 23 28  1  0  0  0  0
 24 25  4  0  0  0  0
 24 29  1  0  0  0  0
 25 30  1  0  0  0  0
 26 31  1  0  0  0  0
 26 32  1  0  0  0  0
M  END
> <BCLConfClusterSize>
1

> <ConfClashScore>
0 

> <ConfOneFourInteractionScore>
-0.985807 

> <ConfScore>
-0.174483 

> <ConfScorePBest>
0.00621043 

> <ConfTolerance>
0.27685 

> <RosettaParamsInstructions>
M  ROOT 3
M  POLY_N_BB 3
M  POLY_CA_BB 4
M  POLY_C_BB 2
M  POLY_O_BB 5
M  POLY_IGNORE 9 10 11 12 13 14 15 16 17 18 
M  POLY_UPPER 6
M  POLY_LOWER 8
M  POLY_CHG 0
M  POLY_PROPERTIES ALPHA_AA L_AA PROTEIN AROMATIC POLYMER 
M  END

$$$$



 32 32  0  0  0  0  0  0  0  0999 V2000
   -1.3031    2.3564   -0.7493 H   0  0  0  1  0  0  0  0  0  0  0  0
   -0.7389    0.5690    0.2002 C   0  0  0  1  0  0  0  0  0  0  0  0
   -3.0228    1.4898   -0.0250 N   0  0  0  1  0  0  0  0  0  0  0  0
   -1.6097    1.8075    0.1165 C   0  0  0  1  0  0  0  0  0  0  0  0
   -0.7043   -0.1135    1.2108 O   0  0  0  1  0  0  0  0  0  0  0  0
   -0.0271    0.2863   -0.8919 N   0  0  0  1  0  0  0  0  0  0  0  0
   -3.5141    1.1605    0.7564 H   0  0  0  1  0  0  0  0  0  0  0  0
   -3.6737    1.6314   -1.1832 C   0  0  0  1  0  0  0  0  0  0  0  0
    0.8972   -0.8378   -0.8909 C   0  0  0  1  0  0  0  0  0  0  0  0
   -5.1204    1.1774   -1.1856 C   0  0  0  1  0  0  0  0  0  0  0  0
   -3.1493    2.0982   -2.1935 O   0  0  0  1  0  0  0  0  0  0  0  0
   -0.1268    0.8366   -1.6966 H   0  0  0  1  0  0  0  0  0  0  0  0
    0.3938   -1.7138   -0.5386 H   0  0  0  1  0  0  0  0  0  0  0  0
    1.7239   -0.6189   -0.2478 H   0  0  0  1  0  0  0  0  0  0  0  0
    1.2535   -1.0072   -1.8856 H   0  0  0  1  0  0  0  0  0  0  0  0
   -5.3896    0.8370   -0.2075 H   0  0  0  1  0  0  0  0  0  0  0  0
   -5.2421    0.3786   -1.8870 H   0  0  0  1  0  0  0  0  0  0  0  0
   -5.7505    1.9962   -1.4639 H   0  0  0  1  0  0  0  0  0  0  0  0
   -4.1397    3.3019    1.6037 F   0  0  0  1  0  0  0  0  0  0  0  0
   -3.3319    4.3114    1.2268 C   0  0  0  1  0  0  0  0  0  0  0  0
   -1.9715    4.0915    1.0765 C   0  0  0  1  0  0  0  0  0  0  0  0
   -1.1416    5.1287    0.6948 C   0  0  0  1  0  0  0  0  0  0  0  0
   -1.6705    6.3877    0.4572 C   0  0  0  1  0  0  0  0  0  0  0  0
   -3.0268    6.6073    0.6071 C   0  0  0  1  0  0  0  0  0  0  0  0
   -3.8591    5.5669    0.9899 C   0  0  0  1  0  0  0  0  0  0  0  0
   -1.3961    2.7181    1.3297 C   0  0  0  1  0  0  0  0  0  0  0  0
   -0.1204    4.9645    0.5860 H   0  0  0  1  0  0  0  0  0  0  0  0
   -1.0466    7.1673    0.1662 H   0  0  0  1  0  0  0  0  0  0  0  0
   -3.4230    7.5530    0.4327 H   0  0  0  1  0  0  0  0  0  0  0  0
   -4.8802    5.7310    1.0988 H   0  0  0  1  0  0  0  0  0  0  0  0
   -0.3472    2.8070    1.5213 H   0  0  0  1  0  0  0  0  0  0  0  0
   -1.8794    2.2868    2.1814 H   0  0  0  1  0  0  0  0  0  0  0  0
  1  4  1  0  0  0  0
  2  4  1  0  0  0  0
  2  5  2  0  0  0  0
  2  6  1  0  0  0  0
  3  4  1  0  0  0  0
  3  7  1  0  0  0  0
  3  8  1  0  0  0  0
  4 26  1  0  0  0  0
  6  9  1  0  0  0  0
  6 12  1  0  0  0  0
  8 10  1  0  0  0  0
  8 11  2  0  0  0  0
  9 13  1  0  0  0  0
  9 14  1  0  0  0  0
  9 15  1  0  0  0  0
 10 16  1  0  0  0  0
 10 17  1  0  0  0  0
 10 18  1  0  0  0  0
 19 20  1  0  0  0  0
 20 21  4  0  0  0  0
 20 25  4  0  0  0  0
 21 22  4  0  0  0  0
 21 26  1  0  0  0  0
 22 23  4  0  0  0  0
 22 27  1  0  0  0  0
 23 24  4  0  0  0  0
 23 28  1  0  0  0  0
 24 25  4  0  0  0  0
 24 29  1  0  0  0  0
 25 30  1  0  0  0  0
 26 31  1  0  0  0  0
 26 32  1  0  0  0  0
M  END
> <BCLConfClusterSize>
1

> <ConfClashScore>
0 

> <ConfOneFourInteractionScore>
-0.967579 

> <ConfScore>
-0.173626 

> <ConfScorePBest>
0.00618195 

> <ConfTolerance>
0.238994 

> <RosettaParamsInstructions>
M  ROOT 3
M  POLY_N_BB 3
M  POLY_CA_BB 4
M  POLY_C_BB 2
M  POLY_O_BB 5
M  POLY_IGNORE 9 10 11 12 13 14 15 16 17 18 
M  POLY_UPPER 6
M  POLY_LOWER 8
M  POLY_CHG 0
M  POLY_PROPERTIES ALPHA_AA L_AA PROTEIN AROMATIC POLYMER 
M  END

$$$$



 32 32  0  0  0  0  0  0  0  0999 V2000
   -2.0008    2.3620    3.3245 H   0  0  0  1  0  0  0  0  0  0  0  0
   -0.2721    1.1986    3.0365 C   0  0  0  1  0  0  0  0  0  0  0  0
   -0.3468    3.5886    3.3827 N   0  0  0  1  0  0  0  0  0  0  0  0
   -1.0712    2.4663    2.8051 C   0  0  0  1  0  0  0  0  0  0  0  0
    0.8663    1.0791    2.5853 O   0  0  0  1  0  0  0  0  0  0  0  0
   -0.8408    0.2179    3.7435 N   0  0  0  1  0  0  0  0  0  0  0  0
    0.4016    3.9762    2.8826 H   0  0  0  1  0  0  0  0  0  0  0  0
   -0.6661    4.1080    4.5691 C   0  0  0  1  0  0  0  0  0  0  0  0
   -0.1883   -1.0652    3.9576 C   0  0  0  1  0  0  0  0  0  0  0  0
    0.2059    5.2669    5.0597 C   0  0  0  1  0  0  0  0  0  0  0  0
   -1.5900    3.7393    5.2930 O   0  0  0  1  0  0  0  0  0  0  0  0
   -1.7281    0.3678    4.1315 H   0  0  0  1  0  0  0  0  0  0  0  0
   -0.9207   -1.8451    3.9434 H   0  0  0  1  0  0  0  0  0  0  0  0
    0.3076   -1.0591    4.9057 H   0  0  0  1  0  0  0  0  0  0  0  0
    0.5280   -1.2348    3.1810 H   0  0  0  1  0  0  0  0  0  0  0  0
    0.5314    5.8483    4.2225 H   0  0  0  1  0  0  0  0  0  0  0  0
    1.0583    4.8777    5.5764 H   0  0  0  1  0  0  0  0  0  0  0  0
   -0.3625    5.8847    5.7232 H   0  0  0  1  0  0  0  0  0  0  0  0
   -4.1397    3.3020    1.6037 F   0  0  0  1  0  0  0  0  0  0  0  0
   -3.3318    4.3115    1.2268 C   0  0  0  1  0  0  0  0  0  0  0  0
   -1.9715    4.0913    1.0765 C   0  0  0  1  0  0  0  0  0  0  0  0
   -1.1417    5.1287    0.6949 C   0  0  0  1  0  0  0  0  0  0  0  0
   -1.6705    6.3878    0.4572 C   0  0  0  1  0  0  0  0  0  0  0  0
   -3.0268    6.6072    0.6071 C   0  0  0  1  0  0  0  0  0  0  0  0
   -3.8591    5.5669    0.9899 C   0  0  0  1  0  0  0  0  0  0  0  0
   -1.3961    2.7179    1.3298 C   0  0  0  1  0  0  0  0  0  0  0  0
   -0.1205    4.9646    0.5860 H   0  0  0  1  0  0  0  0  0  0  0  0
   -1.0466    7.1674    0.1662 H   0  0  0  1  0  0  0  0  0  0  0  0
   -3.4229    7.5528    0.4327 H   0  0  0  1  0  0  0  0  0  0  0  0
   -4.8803    5.7311    1.0987 H   0  0  0  1  0  0  0  0  0  0  0  0
   -2.1073    1.9861    1.0080 H   0  0  0  1  0  0  0  0  0  0  0  0
   -0.4959    2.6155    0.7605 H   0  0  0  1  0  0  0  0  0  0  0  0
  1  4  1  0  0  0  0
  2  4  1  0  0  0  0
  2  5  2  0  0  0  0
  2  6  1  0  0  0  0
  3  4  1  0  0  0  0
  3  7  1  0  0  0  0
  3  8  1  0  0  0  0
  4 26  1  0  0  0  0
  6  9  1  0  0  0  0
  6 12  1  0  0  0  0
  8 10  1  0  0  0  0
  8 11  2  0  0  0  0
  9 13  1  0  0  0  0
  9 14  1  0  0  0  0
  9 15  1  0  0  0  0
 10 16  1  0  0  0  0
 10 17  1  0  0  0  0
 10 18  1  0  0  0  0
 19 20  1  0  0  0  0
 20 21  4  0  0  0  0
 20 25  4  0  0  0  0
 21 22  4  0  0  0  0
 21 26  1  0  0  0  0
 22 23  4  0  0  0  0
 22 27  1  0  0  0  0
 23 24  4  0  0  0  0
 23 28  1  0  0  0  0
 24 25  4  0  0  0  0
 24 29  1  0  0  0  0
 25 30  1  0  0  0  0
 26 31  1  0  0  0  0
 26 32  1  0  0  0  0
M  END
> <BCLConfClusterSize>
1

> <ConfClashScore>
0 

> <ConfOneFourInteractionScore>
-0.985807 

> <ConfScore>
-0.170304 

> <ConfScorePBest>
0.00615347 

> <ConfTolerance>
0.331389 

> <RosettaParamsInstructions>
M  ROOT 3
M  POLY_N_BB 3
M  POLY_CA_BB 4
M  POLY_C_BB 2
M  POLY_O_BB 5
M  POLY_IGNORE 9 10 11 12 13 14 15 16 17 18 
M  POLY_UPPER 6
M  POLY_LOWER 8
M  POLY_CHG 0
M  POLY_PROPERTIES ALPHA_AA L_AA PROTEIN AROMATIC POLYMER 
M  END

$$$$



 32 32  0  0  0  0  0  0  0  0999 V2000
   -2.9158    1.5770    0.3974 H   0  0  0  1  0  0  0  0  0  0  0  0
   -1.6701    2.3593   -1.1125 C   0  0  0  1  0  0  0  0  0  0  0  0
   -1.2010    0.4356    0.3705 N   0  0  0  1  0  0  0  0  0  0  0  0
   -1.8654    1.7255    0.2578 C   0  0  0  1  0  0  0  0  0  0  0  0
   -2.4734    3.1746   -1.5579 O   0  0  0  1  0  0  0  0  0  0  0  0
   -0.5812    1.9706   -1.7819 N   0  0  0  1  0  0  0  0  0  0  0  0
   -0.6593    0.2505    1.1659 H   0  0  0  1  0  0  0  0  0  0  0  0
   -1.3049   -0.5142   -0.5820 C   0  0  0  1  0  0  0  0  0  0  0  0
   -0.2337    2.4337   -3.1171 C   0  0  0  1  0  0  0  0  0  0  0  0
   -0.4511   -1.7545   -0.4451 C   0  0  0  1  0  0  0  0  0  0  0  0
   -2.0711   -0.3776   -1.5349 O   0  0  0  1  0  0  0  0  0  0  0  0
    0.0220    1.3329   -1.3461 H   0  0  0  1  0  0  0  0  0  0  0  0
   -0.6757    3.3929   -3.2887 H   0  0  0  1  0  0  0  0  0  0  0  0
   -0.6001    1.7375   -3.8424 H   0  0  0  1  0  0  0  0  0  0  0  0
    0.8301    2.5111   -3.2019 H   0  0  0  1  0  0  0  0  0  0  0  0
   -0.3419   -2.0005    0.5905 H   0  0  0  1  0  0  0  0  0  0  0  0
    0.5132   -1.5722   -0.8717 H   0  0  0  1  0  0  0  0  0  0  0  0
   -0.9202   -2.5684   -0.9573 H   0  0  0  1  0  0  0  0  0  0  0  0
   -4.1398    3.3019    1.6037 F   0  0  0  1  0  0  0  0  0  0  0  0
   -3.3319    4.3114    1.2268 C   0  0  0  1  0  0  0  0  0  0  0  0
   -1.9716    4.0914    1.0765 C   0  0  0  1  0  0  0  0  0  0  0  0
   -1.1416    5.1287    0.6948 C   0  0  0  1  0  0  0  0  0  0  0  0
   -1.6705    6.3878    0.4572 C   0  0  0  1  0  0  0  0  0  0  0  0
   -3.0268    6.6073    0.6071 C   0  0  0  1  0  0  0  0  0  0  0  0
   -3.8590    5.5669    0.9899 C   0  0  0  1  0  0  0  0  0  0  0  0
   -1.3962    2.7180    1.3297 C   0  0  0  1  0  0  0  0  0  0  0  0
   -0.1204    4.9645    0.5860 H   0  0  0  1  0  0  0  0  0  0  0  0
   -1.0467    7.1674    0.1662 H   0  0  0  1  0  0  0  0  0  0  0  0
   -3.4230    7.5529    0.4327 H   0  0  0  1  0  0  0  0  0  0  0  0
   -4.8802    5.7310    1.0987 H   0  0  0  1  0  0  0  0  0  0  0  0
   -0.3280    2.7762    1.3105 H   0  0  0  1  0  0  0  0  0  0  0  0
   -1.7180    2.3746    2.2907 H   0  0  0  1  0  0  0  0  0  0  0  0
  1  4  1  0  0  0  0
  2  4  1  0  0  0  0
  2  5  2  0  0  0  0
  2  6  1  0  0  0  0
  3  4  1  0  0  0  0
  3  7  1  0  0  0  0
  3  8  1  0  0  0  0
  4 26  1  0  0  0  0
  6  9  1  0  0  0  0
  6 12  1  0  0  0  0
  8 10  1  0  0  0  0
  8 11  2  0  0  0  0
  9 13  1  0  0  0  0
  9 14  1  0  0  0  0
  9 15  1  0  0  0  0
 10 16  1  0  0  0  0
 10 17  1  0  0  0  0
 10 18  1  0  0  0  0
 19 20  1  0  0  0  0
 20 21  4  0  0  0  0
 20 25  4  0  0  0  0
 21 22  4  0  0  0  0
 21 26  1  0  0  0  0
 22 23  4  0  0  0  0
 22 27  1  0  0  0  0
 23 24  4  0  0  0  0
 23 28  1  0  0  0  0
 24 25  4  0  0  0  0
 24 29  1  0  0  0  0
 25 30  1  0  0  0  0
 26 31  1  0  0  0  0
 26 32  1  0  0  0  0
M  END
> <BCLConfClusterSize>
1

> <ConfClashScore>
0 

> <ConfOneFourInteractionScore>
-0.960318 

> <ConfScore>
-0.167196 

> <ConfScorePBest>
0.00612499 

> <ConfTolerance>
0.350622 

> <RosettaParamsInstructions>
M  ROOT 3
M  POLY_N_BB 3
M  POLY_CA_BB 4
M  POLY_C_BB 2
M  POLY_O_BB 5
M  POLY_IGNORE 9 10 11 12 13 14 15 16 17 18 
M  POLY_UPPER 6
M  POLY_LOWER 8
M  POLY_CHG 0
M  POLY_PROPERTIES ALPHA_AA L_AA PROTEIN AROMATIC POLYMER 
M  END

$$$$



 32 32  0  0  0  0  0  0  0  0999 V2000
    0.0550    2.9094   -0.2089 H   0  0  0  1  0  0  0  0  0  0  0  0
    0.1634    0.9553    0.6264 C   0  0  0  1  0  0  0  0  0  0  0  0
   -1.5237    1.7415   -0.9094 N   0  0  0  1  0  0  0  0  0  0  0  0
   -0.6214    2.1628    0.1519 C   0  0  0  1  0  0  0  0  0  0  0  0
    1.2445    1.0796    1.1778 O   0  0  0  1  0  0  0  0  0  0  0  0
   -0.4048   -0.2303    0.4008 N   0  0  0  1  0  0  0  0  0  0  0  0
   -2.4270    1.4447   -0.6721 H   0  0  0  1  0  0  0  0  0  0  0  0
   -1.1634    1.7454   -2.1959 C   0  0  0  1  0  0  0  0  0  0  0  0
    0.1861   -1.4765    0.8653 C   0  0  0  1  0  0  0  0  0  0  0  0
   -2.2186    1.2728   -3.1769 C   0  0  0  1  0  0  0  0  0  0  0  0
   -0.0512    2.1059   -2.5791 O   0  0  0  1  0  0  0  0  0  0  0  0
   -1.2495   -0.2632   -0.0949 H   0  0  0  1  0  0  0  0  0  0  0  0
    1.1742   -1.5737    0.4664 H   0  0  0  1  0  0  0  0  0  0  0  0
   -0.4136   -2.2995    0.5367 H   0  0  0  1  0  0  0  0  0  0  0  0
    0.2321   -1.4724    1.9343 H   0  0  0  1  0  0  0  0  0  0  0  0
   -3.0788    1.9055   -3.1085 H   0  0  0  1  0  0  0  0  0  0  0  0
   -2.4970    0.2664   -2.9435 H   0  0  0  1  0  0  0  0  0  0  0  0
   -1.8247    1.3131   -4.1710 H   0  0  0  1  0  0  0  0  0  0  0  0
   -4.1391    3.2985    1.5955 F   0  0  0  1  0  0  0  0  0  0  0  0
   -3.3302    4.3097    1.2252 C   0  0  0  1  0  0  0  0  0  0  0  0
   -1.9734    4.0909    1.0783 C   0  0  0  1  0  0  0  0  0  0  0  0
   -1.1417    5.1304    0.6920 C   0  0  0  1  0  0  0  0  0  0  0  0
   -1.6684    6.3868    0.4589 C   0  0  0  1  0  0  0  0  0  0  0  0
   -3.0292    6.6060    0.6062 C   0  0  0  1  0  0  0  0  0  0  0  0
   -3.8585    5.5697    0.9914 C   0  0  0  1  0  0  0  0  0  0  0  0
   -1.3970    2.7192    1.3387 C   0  0  0  1  0  0  0  0  0  0  0  0
   -0.1214    4.9649    0.5776 H   0  0  0  1  0  0  0  0  0  0  0  0
   -1.0438    7.1677    0.1729 H   0  0  0  1  0  0  0  0  0  0  0  0
   -3.4261    7.5504    0.4269 H   0  0  0  1  0  0  0  0  0  0  0  0
   -4.8789    5.7352    1.1058 H   0  0  0  1  0  0  0  0  0  0  0  0
   -0.7366    2.7811    2.1783 H   0  0  0  1  0  0  0  0  0  0  0  0
   -2.2003    2.0495    1.5648 H   0  0  0  1  0  0  0  0  0  0  0  0
  1  4  1  0  0  0  0
  2  4  1  0  0  0  0
  2  5  2  0  0  0  0
  2  6  1  0  0  0  0
  3  4  1  0  0  0  0
  3  7  1  0  0  0  0
  3  8  1  0  0  0  0
  4 26  1  0  0  0  0
  6  9  1  0  0  0  0
  6 12  1  0  0  0  0
  8 10  1  0  0  0  0
  8 11  2  0  0  0  0
  9 13  1  0  0  0  0
  9 14  1  0  0  0  0
  9 15  1  0  0  0  0
 10 16  1  0  0  0  0
 10 17  1  0  0  0  0
 10 18  1  0  0  0  0
 19 20  1  0  0  0  0
 20 21  4  0  0  0  0
 20 25  4  0  0  0  0
 21 22  4  0  0  0  0
 21 26  1  0  0  0  0
 22 23  4  0  0  0  0
 22 27  1  0  0  0  0
 23 24  4  0  0  0  0
 23 28  1  0  0  0  0
 24 25  4  0  0  0  0
 24 29  1  0  0  0  0
 25 30  1  0  0  0  0
 26 31  1  0  0  0  0
 26 32  1  0  0  0  0
M  END
> <BCLConfClusterSize>
1

> <ConfClashScore>
0 

> <ConfOneFourInteractionScore>
-0.960318 

> <ConfScore>
-0.165399 

> <ConfScorePBest>
0.00609651 

> <ConfTolerance>
0.351287 

> <RosettaParamsInstructions>
M  ROOT 3
M  POLY_N_BB 3
M  POLY_CA_BB 4
M  POLY_C_BB 2
M  POLY_O_BB 5
M  POLY_IGNORE 9 10 11 12 13 14 15 16 17 18 
M  POLY_UPPER 6
M  POLY_LOWER 8
M  POLY_CHG 0
M  POLY_PROPERTIES ALPHA_AA L_AA PROTEIN AROMATIC POLYMER 
M  END

$$$$



 32 32  0  0  0  0  0  0  0  0999 V2000
    0.0785    2.8360   -0.1814 H   0  0  0  1  0  0  0  0  0  0  0  0
    0.0187    0.8337    0.4616 C   0  0  0  1  0  0  0  0  0  0  0  0
   -1.5575    1.9103   -1.0250 N   0  0  0  1  0  0  0  0  0  0  0  0
   -0.6756    2.1352    0.1106 C   0  0  0  1  0  0  0  0  0  0  0  0
   -0.5724   -0.2324    0.4129 O   0  0  0  1  0  0  0  0  0  0  0  0
    1.2991    0.9385    0.8208 N   0  0  0  1  0  0  0  0  0  0  0  0
   -2.4574    2.2924   -0.9583 H   0  0  0  1  0  0  0  0  0  0  0  0
   -1.2773    1.2364   -2.1575 C   0  0  0  1  0  0  0  0  0  0  0  0
    2.1103   -0.2227    1.1549 C   0  0  0  1  0  0  0  0  0  0  0  0
   -2.4455    1.0148   -3.0983 C   0  0  0  1  0  0  0  0  0  0  0  0
   -0.1517    0.8198   -2.4280 O   0  0  0  1  0  0  0  0  0  0  0  0
    1.7077    1.8283    0.8611 H   0  0  0  1  0  0  0  0  0  0  0  0
    1.6831   -1.0968    0.7096 H   0  0  0  1  0  0  0  0  0  0  0  0
    2.1405   -0.3425    2.2177 H   0  0  0  1  0  0  0  0  0  0  0  0
    3.1037   -0.0824    0.7829 H   0  0  0  1  0  0  0  0  0  0  0  0
   -2.9260    1.9499   -3.2975 H   0  0  0  1  0  0  0  0  0  0  0  0
   -3.1454    0.3438   -2.6457 H   0  0  0  1  0  0  0  0  0  0  0  0
   -2.0896    0.5944   -4.0157 H   0  0  0  1  0  0  0  0  0  0  0  0
   -4.1397    3.3020    1.6037 F   0  0  0  1  0  0  0  0  0  0  0  0
   -3.3318    4.3116    1.2268 C   0  0  0  1  0  0  0  0  0  0  0  0
   -1.9715    4.0913    1.0765 C   0  0  0  1  0  0  0  0  0  0  0  0
   -1.1417    5.1287    0.6949 C   0  0  0  1  0  0  0  0  0  0  0  0
   -1.6704    6.3879    0.4572 C   0  0  0  1  0  0  0  0  0  0  0  0
   -3.0268    6.6072    0.6071 C   0  0  0  1  0  0  0  0  0  0  0  0
   -3.8591    5.5669    0.9899 C   0  0  0  1  0  0  0  0  0  0  0  0
   -1.3962    2.7179    1.3298 C   0  0  0  1  0  0  0  0  0  0  0  0
   -0.1205    4.9645    0.5860 H   0  0  0  1  0  0  0  0  0  0  0  0
   -1.0466    7.1674    0.1661 H   0  0  0  1  0  0  0  0  0  0  0  0
   -3.4230    7.5528    0.4327 H   0  0  0  1  0  0  0  0  0  0  0  0
   -4.8803    5.7310    1.0988 H   0  0  0  1  0  0  0  0  0  0  0  0
   -0.6983    2.7848    2.1381 H   0  0  0  1  0  0  0  0  0  0  0  0
   -2.1944    2.0589    1.6007 H   0  0  0  1  0  0  0  0  0  0  0  0
  1  4  1  0  0  0  0
  2  4  1  0  0  0  0
  2  5  2  0  0  0  0
  2  6  1  0  0  0  0
  3  4  1  0  0  0  0
  3  7  1  0  0  0  0
  3  8  1  0  0  0  0
  4 26  1  0  0  0  0
  6  9  1  0  0  0  0
  6 12  1  0  0  0  0
  8 10  1  0  0  0  0
  8 11  2  0  0  0  0
  9 13  1  0  0  0  0
  9 14  1  0  0  0  0
  9 15  1  0  0  0  0
 10 16  1  0  0  0  0
 10 17  1  0  0  0  0
 10 18  1  0  0  0  0
 19 20  1  0  0  0  0
 20 21  4  0  0  0  0
 20 25  4  0  0  0  0
 21 22  4  0  0  0  0
 21 26  1  0  0  0  0
 22 23  4  0  0  0  0
 22 27  1  0  0  0  0
 23 24  4  0  0  0  0
 23 28  1  0  0  0  0
 24 25  4  0  0  0  0
 24 29  1  0  0  0  0
 25 30  1  0  0  0  0
 26 31  1  0  0  0  0
 26 32  1  0  0  0  0
M  END
> <BCLConfClusterSize>
1

> <ConfClashScore>
0 

> <ConfOneFourInteractionScore>
-0.985807 

> <ConfScore>
-0.15509 

> <ConfScorePBest>
0.00606803 

> <ConfTolerance>
0.28495 

> <RosettaParamsInstructions>
M  ROOT 3
M  POLY_N_BB 3
M  POLY_CA_BB 4
M  POLY_C_BB 2
M  POLY_O_BB 5
M  POLY_IGNORE 9 10 11 12 13 14 15 16 17 18 
M  POLY_UPPER 6
M  POLY_LOWER 8
M  POLY_CHG 0
M  POLY_PROPERTIES ALPHA_AA L_AA PROTEIN AROMATIC POLYMER 
M  END

$$$$



 32 32  0  0  0  0  0  0  0  0999 V2000
   -2.9100    1.7569    0.2330 H   0  0  0  1  0  0  0  0  0  0  0  0
   -1.2897    1.8894   -1.0867 C   0  0  0  1  0  0  0  0  0  0  0  0
   -1.5216    0.3278    0.7881 N   0  0  0  1  0  0  0  0  0  0  0  0
   -1.8449    1.6847    0.3046 C   0  0  0  1  0  0  0  0  0  0  0  0
   -1.7793    2.7256   -1.8448 O   0  0  0  1  0  0  0  0  0  0  0  0
   -0.2537    1.1361   -1.4667 N   0  0  0  1  0  0  0  0  0  0  0  0
   -1.0565    0.2293    1.6450 H   0  0  0  1  0  0  0  0  0  0  0  0
   -1.8483   -0.7957    0.0821 C   0  0  0  1  0  0  0  0  0  0  0  0
    0.3425    1.2447   -2.7898 C   0  0  0  1  0  0  0  0  0  0  0  0
   -1.4606   -2.0843    0.7810 C   0  0  0  1  0  0  0  0  0  0  0  0
   -2.3981   -0.7396   -1.0024 O   0  0  0  1  0  0  0  0  0  0  0  0
    0.1176    0.4879   -0.8324 H   0  0  0  1  0  0  0  0  0  0  0  0
    1.3834    1.0031   -2.7334 H   0  0  0  1  0  0  0  0  0  0  0  0
    0.2279    2.2452   -3.1514 H   0  0  0  1  0  0  0  0  0  0  0  0
   -0.1454    0.5656   -3.4574 H   0  0  0  1  0  0  0  0  0  0  0  0
   -0.4385   -2.0281    1.0924 H   0  0  0  1  0  0  0  0  0  0  0  0
   -1.5831   -2.9061    0.1068 H   0  0  0  1  0  0  0  0  0  0  0  0
   -2.0866   -2.2279    1.6368 H   0  0  0  1  0  0  0  0  0  0  0  0
   -4.1397    3.3020    1.6037 F   0  0  0  1  0  0  0  0  0  0  0  0
   -3.3318    4.3115    1.2268 C   0  0  0  1  0  0  0  0  0  0  0  0
   -1.9715    4.0913    1.0765 C   0  0  0  1  0  0  0  0  0  0  0  0
   -1.1417    5.1287    0.6949 C   0  0  0  1  0  0  0  0  0  0  0  0
   -1.6705    6.3878    0.4572 C   0  0  0  1  0  0  0  0  0  0  0  0
   -3.0268    6.6072    0.6071 C   0  0  0  1  0  0  0  0  0  0  0  0
   -3.8591    5.5669    0.9899 C   0  0  0  1  0  0  0  0  0  0  0  0
   -1.3961    2.7179    1.3298 C   0  0  0  1  0  0  0  0  0  0  0  0
   -0.1205    4.9646    0.5860 H   0  0  0  1  0  0  0  0  0  0  0  0
   -1.0466    7.1674    0.1662 H   0  0  0  1  0  0  0  0  0  0  0  0
   -3.4229    7.5528    0.4327 H   0  0  0  1  0  0  0  0  0  0  0  0
   -4.8803    5.7311    1.0987 H   0  0  0  1  0  0  0  0  0  0  0  0
   -0.3286    2.7852    1.3006 H   0  0  0  1  0  0  0  0  0  0  0  0
   -1.7071    2.3921    2.3003 H   0  0  0  1  0  0  0  0  0  0  0  0
  1  4  1  0  0  0  0
  2  4  1  0  0  0  0
  2  5  2  0  0  0  0
  2  6  1  0  0  0  0
  3  4  1  0  0  0  0
  3  7  1  0  0  0  0
  3  8  1  0  0  0  0
  4 26  1  0  0  0  0
  6  9  1  0  0  0  0
  6 12  1  0  0  0  0
  8 10  1  0  0  0  0
  8 11  2  0  0  0  0
  9 13  1  0  0  0  0
  9 14  1  0  0  0  0
  9 15  1  0  0  0  0
 10 16  1  0  0  0  0
 10 17  1  0  0  0  0
 10 18  1  0  0  0  0
 19 20  1  0  0  0  0
 20 21  4  0  0  0  0
 20 25  4  0  0  0  0
 21 22  4  0  0  0  0
 21 26  1  0  0  0  0
 22 23  4  0  0  0  0
 22 27  1  0  0  0  0
 23 24  4  0  0  0  0
 23 28  1  0  0  0  0
 24 25  4  0  0  0  0
 24 29  1  0  0  0  0
 25 30  1  0  0  0  0
 26 31  1  0  0  0  0
 26 32  1  0  0  0  0
M  END
> <BCLConfClusterSize>
1

> <ConfClashScore>
0 

> <ConfOneFourInteractionScore>
-0.960318 

> <ConfScore>
-0.152265 

> <ConfScorePBest>
0.00603955 

> <ConfTolerance>
0.359363 

> <RosettaParamsInstructions>
M  ROOT 3
M  POLY_N_BB 3
M  POLY_CA_BB 4
M  POLY_C_BB 2
M  POLY_O_BB 5
M  POLY_IGNORE 9 10 11 12 13 14 15 16 17 18 
M  POLY_UPPER 6
M  POLY_LOWER 8
M  POLY_CHG 0
M  POLY_PROPERTIES ALPHA_AA L_AA PROTEIN AROMATIC POLYMER 
M  END

$$$$



 32 32  0  0  0  0  0  0  0  0999 V2000
    0.5750    3.2286    1.8905 H   0  0  0  1  0  0  0  0  0  0  0  0
    0.5652    1.1718    1.4037 C   0  0  0  1  0  0  0  0  0  0  0  0
    0.5179    3.0372   -0.1676 N   0  0  0  1  0  0  0  0  0  0  0  0
    0.1097    2.6009    1.1594 C   0  0  0  1  0  0  0  0  0  0  0  0
    1.0027    0.8194    2.4983 O   0  0  0  1  0  0  0  0  0  0  0  0
    0.4574    0.3422    0.3620 N   0  0  0  1  0  0  0  0  0  0  0  0
   -0.1649    3.1374   -0.8634 H   0  0  0  1  0  0  0  0  0  0  0  0
    1.7912    3.3058   -0.4702 C   0  0  0  1  0  0  0  0  0  0  0  0
    0.8815   -1.0499    0.3583 C   0  0  0  1  0  0  0  0  0  0  0  0
    2.0799    3.5613   -1.9367 C   0  0  0  1  0  0  0  0  0  0  0  0
    2.6843    3.3475    0.3718 O   0  0  0  1  0  0  0  0  0  0  0  0
    0.0630    0.6979   -0.4616 H   0  0  0  1  0  0  0  0  0  0  0  0
    0.2878   -1.6061    1.0533 H   0  0  0  1  0  0  0  0  0  0  0  0
    1.9115   -1.1095    0.6419 H   0  0  0  1  0  0  0  0  0  0  0  0
    0.7571   -1.4578   -0.6231 H   0  0  0  1  0  0  0  0  0  0  0  0
    1.9320    2.6590   -2.4924 H   0  0  0  1  0  0  0  0  0  0  0  0
    3.0930    3.8870   -2.0491 H   0  0  0  1  0  0  0  0  0  0  0  0
    1.4186    4.3183   -2.3036 H   0  0  0  1  0  0  0  0  0  0  0  0
   -4.1398    3.3019    1.6037 F   0  0  0  1  0  0  0  0  0  0  0  0
   -3.3319    4.3114    1.2268 C   0  0  0  1  0  0  0  0  0  0  0  0
   -1.9715    4.0914    1.0765 C   0  0  0  1  0  0  0  0  0  0  0  0
   -1.1416    5.1287    0.6948 C   0  0  0  1  0  0  0  0  0  0  0  0
   -1.6705    6.3878    0.4572 C   0  0  0  1  0  0  0  0  0  0  0  0
   -3.0268    6.6073    0.6071 C   0  0  0  1  0  0  0  0  0  0  0  0
   -3.8590    5.5669    0.9899 C   0  0  0  1  0  0  0  0  0  0  0  0
   -1.3961    2.7180    1.3297 C   0  0  0  1  0  0  0  0  0  0  0  0
   -0.1204    4.9646    0.5860 H   0  0  0  1  0  0  0  0  0  0  0  0
   -1.0467    7.1673    0.1662 H   0  0  0  1  0  0  0  0  0  0  0  0
   -3.4230    7.5529    0.4327 H   0  0  0  1  0  0  0  0  0  0  0  0
   -4.8802    5.7311    1.0987 H   0  0  0  1  0  0  0  0  0  0  0  0
   -1.6373    2.4392    2.3342 H   0  0  0  1  0  0  0  0  0  0  0  0
   -1.8594    2.0353    0.6485 H   0  0  0  1  0  0  0  0  0  0  0  0
  1  4  1  0  0  0  0
  2  4  1  0  0  0  0
  2  5  2  0  0  0  0
  2  6  1  0  0  0  0
  3  4  1  0  0  0  0
  3  7  1  0  0  0  0
  3  8  1  0  0  0  0
  4 26  1  0  0  0  0
  6  9  1  0  0  0  0
  6 12  1  0  0  0  0
  8 10  1  0  0  0  0
  8 11  2  0  0  0  0
  9 13  1  0  0  0  0
  9 14  1  0  0  0  0
  9 15  1  0  0  0  0
 10 16  1  0  0  0  0
 10 17  1  0  0  0  0
 10 18  1  0  0  0  0
 19 20  1  0  0  0  0
 20 21  4  0  0  0  0
 20 25  4  0  0  0  0
 21 22  4  0  0  0  0
 21 26  1  0  0  0  0
 22 23  4  0  0  0  0
 22 27  1  0  0  0  0
 23 24  4  0  0  0  0
 23 28  1  0  0  0  0
 24 25  4  0  0  0  0
 24 29  1  0  0  0  0
 25 30  1  0  0  0  0
 26 31  1  0  0  0  0
 26 32  1  0  0  0  0
M  END
> <BCLConfClusterSize>
1

> <ConfClashScore>
0 

> <ConfOneFourInteractionScore>
-0.952877 

> <ConfScore>
-0.151563 

> <ConfScorePBest>
0.00601107 

> <ConfTolerance>
0.375323 

> <RosettaParamsInstructions>
M  ROOT 3
M  POLY_N_BB 3
M  POLY_CA_BB 4
M  POLY_C_BB 2
M  POLY_O_BB 5
M  POLY_IGNORE 9 10 11 12 13 14 15 16 17 18 
M  POLY_UPPER 6
M  POLY_LOWER 8
M  POLY_CHG 0
M  POLY_PROPERTIES ALPHA_AA L_AA PROTEIN AROMATIC POLYMER 
M  END

$$$$



 32 32  0  0  0  0  0  0  0  0999 V2000
   -0.4305    2.6943   -0.5605 H   0  0  0  1  0  0  0  0  0  0  0  0
   -0.0487    0.8290    0.3659 C   0  0  0  1  0  0  0  0  0  0  0  0
   -2.1347    1.5306   -0.6955 N   0  0  0  1  0  0  0  0  0  0  0  0
   -0.9727    1.9985    0.0451 C   0  0  0  1  0  0  0  0  0  0  0  0
   -0.4554   -0.3297    0.3425 O   0  0  0  1  0  0  0  0  0  0  0  0
    1.2121    1.1514    0.6686 N   0  0  0  1  0  0  0  0  0  0  0  0
   -2.6902    0.8564   -0.2515 H   0  0  0  1  0  0  0  0  0  0  0  0
   -2.5304    1.9159   -1.9121 C   0  0  0  1  0  0  0  0  0  0  0  0
    2.1830    0.1615    1.1103 C   0  0  0  1  0  0  0  0  0  0  0  0
   -3.7815    1.2493   -2.4377 C   0  0  0  1  0  0  0  0  0  0  0  0
   -1.9281    2.7577   -2.5770 O   0  0  0  1  0  0  0  0  0  0  0  0
    1.4927    2.0871    0.5906 H   0  0  0  1  0  0  0  0  0  0  0  0
    1.6989   -0.5597    1.7352 H   0  0  0  1  0  0  0  0  0  0  0  0
    2.9608    0.6466    1.6623 H   0  0  0  1  0  0  0  0  0  0  0  0
    2.6034   -0.3304    0.2581 H   0  0  0  1  0  0  0  0  0  0  0  0
   -3.7104    0.1915   -2.2929 H   0  0  0  1  0  0  0  0  0  0  0  0
   -3.8859    1.4599   -3.4815 H   0  0  0  1  0  0  0  0  0  0  0  0
   -4.6336    1.6247   -1.9106 H   0  0  0  1  0  0  0  0  0  0  0  0
   -4.1398    3.3019    1.6037 F   0  0  0  1  0  0  0  0  0  0  0  0
   -3.3319    4.3114    1.2268 C   0  0  0  1  0  0  0  0  0  0  0  0
   -1.9715    4.0914    1.0765 C   0  0  0  1  0  0  0  0  0  0  0  0
   -1.1416    5.1287    0.6948 C   0  0  0  1  0  0  0  0  0  0  0  0
   -1.6705    6.3878    0.4572 C   0  0  0  1  0  0  0  0  0  0  0  0
   -3.0268    6.6073    0.6071 C   0  0  0  1  0  0  0  0  0  0  0  0
   -3.8590    5.5669    0.9899 C   0  0  0  1  0  0  0  0  0  0  0  0
   -1.3961    2.7180    1.3297 C   0  0  0  1  0  0  0  0  0  0  0  0
   -0.1204    4.9646    0.5860 H   0  0  0  1  0  0  0  0  0  0  0  0
   -1.0467    7.1673    0.1662 H   0  0  0  1  0  0  0  0  0  0  0  0
   -3.4230    7.5529    0.4327 H   0  0  0  1  0  0  0  0  0  0  0  0
   -4.8802    5.7311    1.0987 H   0  0  0  1  0  0  0  0  0  0  0  0
   -0.5388    2.8192    1.9618 H   0  0  0  1  0  0  0  0  0  0  0  0
   -2.1364    2.1245    1.8243 H   0  0  0  1  0  0  0  0  0  0  0  0
  1  4  1  0  0  0  0
  2  4  1  0  0  0  0
  2  5  2  0  0  0  0
  2  6  1  0  0  0  0
  3  4  1  0  0  0  0
  3  7  1  0  0  0  0
  3  8  1  0  0  0  0
  4 26  1  0  0  0  0
  6  9  1  0  0  0  0
  6 12  1  0  0  0  0
  8 10  1  0  0  0  0
  8 11  2  0  0  0  0
  9 13  1  0  0  0  0
  9 14  1  0  0  0  0
  9 15  1  0  0  0  0
 10 16  1  0  0  0  0
 10 17  1  0  0  0  0
 10 18  1  0  0  0  0
 19 20  1  0  0  0  0
 20 21  4  0  0  0  0
 20 25  4  0  0  0  0
 21 22  4  0  0  0  0
 21 26  1  0  0  0  0
 22 23  4  0  0  0  0
 22 27  1  0  0  0  0
 23 24  4  0  0  0  0
 23 28  1  0  0  0  0
 24 25  4  0  0  0  0
 24 29  1  0  0  0  0
 25 30  1  0  0  0  0
 26 31  1  0  0  0  0
 26 32  1  0  0  0  0
M  END
> <BCLConfClusterSize>
1

> <ConfClashScore>
0 

> <ConfOneFourInteractionScore>
-0.990503 

> <ConfScore>
-0.146474 

> <ConfScorePBest>
0.00598259 

> <ConfTolerance>
0.349069 

> <RosettaParamsInstructions>
M  ROOT 3
M  POLY_N_BB 3
M  POLY_CA_BB 4
M  POLY_C_BB 2
M  POLY_O_BB 5
M  POLY_IGNORE 9 10 11 12 13 14 15 16 17 18 
M  POLY_UPPER 6
M  POLY_LOWER 8
M  POLY_CHG 0
M  POLY_PROPERTIES ALPHA_AA L_AA PROTEIN AROMATIC POLYMER 
M  END

$$$$



 32 32  0  0  0  0  0  0  0  0999 V2000
   -0.3753    3.2476    3.0898 H   0  0  0  1  0  0  0  0  0  0  0  0
    0.1682    1.2577    2.6492 C   0  0  0  1  0  0  0  0  0  0  0  0
    0.9570    3.3238    1.5232 N   0  0  0  1  0  0  0  0  0  0  0  0
   -0.1559    2.6830    2.2077 C   0  0  0  1  0  0  0  0  0  0  0  0
   -0.2658    0.8263    3.7047 O   0  0  0  1  0  0  0  0  0  0  0  0
    1.0077    0.5582    1.8805 N   0  0  0  1  0  0  0  0  0  0  0  0
    0.8559    3.5646    0.5786 H   0  0  0  1  0  0  0  0  0  0  0  0
    2.1120    3.5952    2.1376 C   0  0  0  1  0  0  0  0  0  0  0  0
    1.4560   -0.7936    2.1795 C   0  0  0  1  0  0  0  0  0  0  0  0
    3.1640    4.2728    1.2891 C   0  0  0  1  0  0  0  0  0  0  0  0
    2.3241    3.3188    3.3176 O   0  0  0  1  0  0  0  0  0  0  0  0
    1.3429    0.9825    1.0632 H   0  0  0  1  0  0  0  0  0  0  0  0
    0.6877   -1.3154    2.7107 H   0  0  0  1  0  0  0  0  0  0  0  0
    2.3397   -0.7511    2.7813 H   0  0  0  1  0  0  0  0  0  0  0  0
    1.6704   -1.3082    1.2662 H   0  0  0  1  0  0  0  0  0  0  0  0
    3.2792    3.7389    0.3691 H   0  0  0  1  0  0  0  0  0  0  0  0
    4.0955    4.2809    1.8155 H   0  0  0  1  0  0  0  0  0  0  0  0
    2.8618    5.2782    1.0823 H   0  0  0  1  0  0  0  0  0  0  0  0
   -4.1397    3.3019    1.6037 F   0  0  0  1  0  0  0  0  0  0  0  0
   -3.3319    4.3114    1.2268 C   0  0  0  1  0  0  0  0  0  0  0  0
   -1.9715    4.0915    1.0765 C   0  0  0  1  0  0  0  0  0  0  0  0
   -1.1416    5.1287    0.6948 C   0  0  0  1  0  0  0  0  0  0  0  0
   -1.6705    6.3877    0.4572 C   0  0  0  1  0  0  0  0  0  0  0  0
   -3.0268    6.6073    0.6071 C   0  0  0  1  0  0  0  0  0  0  0  0
   -3.8591    5.5669    0.9899 C   0  0  0  1  0  0  0  0  0  0  0  0
   -1.3961    2.7181    1.3297 C   0  0  0  1  0  0  0  0  0  0  0  0
   -0.1204    4.9645    0.5860 H   0  0  0  1  0  0  0  0  0  0  0  0
   -1.0466    7.1673    0.1662 H   0  0  0  1  0  0  0  0  0  0  0  0
   -3.4230    7.5530    0.4327 H   0  0  0  1  0  0  0  0  0  0  0  0
   -4.8802    5.7310    1.0988 H   0  0  0  1  0  0  0  0  0  0  0  0
   -2.1517    2.1256    1.8020 H   0  0  0  1  0  0  0  0  0  0  0  0
   -1.1432    2.2866    0.3838 H   0  0  0  1  0  0  0  0  0  0  0  0
  1  4  1  0  0  0  0
  2  4  1  0  0  0  0
  2  5  2  0  0  0  0
  2  6  1  0  0  0  0
  3  4  1  0  0  0  0
  3  7  1  0  0  0  0
  3  8  1  0  0  0  0
  4 26  1  0  0  0  0
  6  9  1  0  0  0  0
  6 12  1  0  0  0  0
  8 10  1  0  0  0  0
  8 11  2  0  0  0  0
  9 13  1  0  0  0  0
  9 14  1  0  0  0  0
  9 15  1  0  0  0  0
 10 16  1  0  0  0  0
 10 17  1  0  0  0  0
 10 18  1  0  0  0  0
 19 20  1  0  0  0  0
 20 21  4  0  0  0  0
 20 25  4  0  0  0  0
 21 22  4  0  0  0  0
 21 26  1  0  0  0  0
 22 23  4  0  0  0  0
 22 27  1  0  0  0  0
 23 24  4  0  0  0  0
 23 28  1  0  0  0  0
 24 25  4  0  0  0  0
 24 29  1  0  0  0  0
 25 30  1  0  0  0  0
 26 31  1  0  0  0  0
 26 32  1  0  0  0  0
M  END
> <BCLConfClusterSize>
1

> <ConfClashScore>
0 

> <ConfOneFourInteractionScore>
-0.956443 

> <ConfScore>
-0.144859 

> <ConfScorePBest>
0.00595411 

> <ConfTolerance>
0.462894 

> <RosettaParamsInstructions>
M  ROOT 3
M  POLY_N_BB 3
M  POLY_CA_BB 4
M  POLY_C_BB 2
M  POLY_O_BB 5
M  POLY_IGNORE 9 10 11 12 13 14 15 16 17 18 
M  POLY_UPPER 6
M  POLY_LOWER 8
M  POLY_CHG 0
M  POLY_PROPERTIES ALPHA_AA L_AA PROTEIN AROMATIC POLYMER 
M  END

$$$$



 32 32  0  0  0  0  0  0  0  0999 V2000
   -2.5362    2.4013    3.0674 H   0  0  0  1  0  0  0  0  0  0  0  0
   -1.2908    0.7196    2.9270 C   0  0  0  1  0  0  0  0  0  0  0  0
   -0.6347    2.9720    3.6487 N   0  0  0  1  0  0  0  0  0  0  0  0
   -1.5303    2.2073    2.7584 C   0  0  0  1  0  0  0  0  0  0  0  0
   -2.2265   -0.0787    2.9546 O   0  0  0  1  0  0  0  0  0  0  0  0
   -0.0129    0.3467    3.0411 N   0  0  0  1  0  0  0  0  0  0  0  0
    0.2203    3.2951    3.2953 H   0  0  0  1  0  0  0  0  0  0  0  0
   -0.9521    3.2411    4.9301 C   0  0  0  1  0  0  0  0  0  0  0  0
    0.4378   -1.0090    3.3181 C   0  0  0  1  0  0  0  0  0  0  0  0
   -0.0013    4.2227    5.6032 C   0  0  0  1  0  0  0  0  0  0  0  0
   -1.9012    2.7628    5.5241 O   0  0  0  1  0  0  0  0  0  0  0  0
    0.6725    1.0382    2.9298 H   0  0  0  1  0  0  0  0  0  0  0  0
   -0.0062   -1.3540    4.2285 H   0  0  0  1  0  0  0  0  0  0  0  0
    1.5033   -1.0174    3.4157 H   0  0  0  1  0  0  0  0  0  0  0  0
    0.1477   -1.6524    2.5139 H   0  0  0  1  0  0  0  0  0  0  0  0
    0.1321    5.0785    4.9750 H   0  0  0  1  0  0  0  0  0  0  0  0
    0.9442    3.7488    5.7653 H   0  0  0  1  0  0  0  0  0  0  0  0
   -0.4123    4.5302    6.5420 H   0  0  0  1  0  0  0  0  0  0  0  0
   -4.1398    3.3019    1.6037 F   0  0  0  1  0  0  0  0  0  0  0  0
   -3.3319    4.3114    1.2268 C   0  0  0  1  0  0  0  0  0  0  0  0
   -1.9716    4.0914    1.0765 C   0  0  0  1  0  0  0  0  0  0  0  0
   -1.1416    5.1287    0.6948 C   0  0  0  1  0  0  0  0  0  0  0  0
   -1.6705    6.3878    0.4572 C   0  0  0  1  0  0  0  0  0  0  0  0
   -3.0268    6.6073    0.6071 C   0  0  0  1  0  0  0  0  0  0  0  0
   -3.8590    5.5669    0.9899 C   0  0  0  1  0  0  0  0  0  0  0  0
   -1.3962    2.7180    1.3297 C   0  0  0  1  0  0  0  0  0  0  0  0
   -0.1204    4.9645    0.5860 H   0  0  0  1  0  0  0  0  0  0  0  0
   -1.0467    7.1674    0.1662 H   0  0  0  1  0  0  0  0  0  0  0  0
   -3.4230    7.5529    0.4327 H   0  0  0  1  0  0  0  0  0  0  0  0
   -4.8802    5.7310    1.0987 H   0  0  0  1  0  0  0  0  0  0  0  0
   -1.8958    2.0266    0.6838 H   0  0  0  1  0  0  0  0  0  0  0  0
   -0.3548    2.7463    1.0857 H   0  0  0  1  0  0  0  0  0  0  0  0
  1  4  1  0  0  0  0
  2  4  1  0  0  0  0
  2  5  2  0  0  0  0
  2  6  1  0  0  0  0
  3  4  1  0  0  0  0
  3  7  1  0  0  0  0
  3  8  1  0  0  0  0
  4 26  1  0  0  0  0
  6  9  1  0  0  0  0
  6 12  1  0  0  0  0
  8 10  1  0  0  0  0
  8 11  2  0  0  0  0
  9 13  1  0  0  0  0
  9 14  1  0  0  0  0
  9 15  1  0  0  0  0
 10 16  1  0  0  0  0
 10 17  1  0  0  0  0
 10 18  1  0  0  0  0
 19 20  1  0  0  0  0
 20 21  4  0  0  0  0
 20 25  4  0  0  0  0
 21 22  4  0  0  0  0
 21 26  1  0  0  0  0
 22 23  4  0  0  0  0
 22 27  1  0  0  0  0
 23 24  4  0  0  0  0
 23 28  1  0  0  0  0
 24 25  4  0  0  0  0
 24 29  1  0  0  0  0
 25 30  1  0  0  0  0
 26 31  1  0  0  0  0
 26 32  1  0  0  0  0
M  END
> <BCLConfClusterSize>
1

> <ConfClashScore>
0 

> <ConfOneFourInteractionScore>
-0.960318 

> <ConfScore>
-0.144279 

> <ConfScorePBest>
0.00592562 

> <ConfTolerance>
0.356431 

> <RosettaParamsInstructions>
M  ROOT 3
M  POLY_N_BB 3
M  POLY_CA_BB 4
M  POLY_C_BB 2
M  POLY_O_BB 5
M  POLY_IGNORE 9 10 11 12 13 14 15 16 17 18 
M  POLY_UPPER 6
M  POLY_LOWER 8
M  POLY_CHG 0
M  POLY_PROPERTIES ALPHA_AA L_AA PROTEIN AROMATIC POLYMER 
M  END

$$$$



 32 32  0  0  0  0  0  0  0  0999 V2000
   -2.9406    2.1836    2.6779 H   0  0  0  1  0  0  0  0  0  0  0  0
   -1.4993    0.6420    2.7521 C   0  0  0  1  0  0  0  0  0  0  0  0
   -1.3212    2.9187    3.7292 N   0  0  0  1  0  0  0  0  0  0  0  0
   -1.8733    2.1114    2.6515 C   0  0  0  1  0  0  0  0  0  0  0  0
   -0.4780    0.2859    3.3164 O   0  0  0  1  0  0  0  0  0  0  0  0
   -2.3553   -0.2147    2.1878 N   0  0  0  1  0  0  0  0  0  0  0  0
   -0.3507    2.9259    3.8652 H   0  0  0  1  0  0  0  0  0  0  0  0
   -2.0914    3.6502    4.5396 C   0  0  0  1  0  0  0  0  0  0  0  0
   -2.1719   -1.6567    2.2583 C   0  0  0  1  0  0  0  0  0  0  0  0
   -1.3555    4.5671    5.4972 C   0  0  0  1  0  0  0  0  0  0  0  0
   -3.3204    3.5967    4.5242 O   0  0  0  1  0  0  0  0  0  0  0  0
   -3.1336    0.1403    1.7097 H   0  0  0  1  0  0  0  0  0  0  0  0
   -1.2825   -1.8770    2.8109 H   0  0  0  1  0  0  0  0  0  0  0  0
   -2.0840   -2.0536    1.2685 H   0  0  0  1  0  0  0  0  0  0  0  0
   -3.0143   -2.0996    2.7472 H   0  0  0  1  0  0  0  0  0  0  0  0
   -0.7612    3.9813    6.1669 H   0  0  0  1  0  0  0  0  0  0  0  0
   -2.0644    5.1399    6.0578 H   0  0  0  1  0  0  0  0  0  0  0  0
   -0.7217    5.2271    4.9426 H   0  0  0  1  0  0  0  0  0  0  0  0
   -4.1391    3.2983    1.5955 F   0  0  0  1  0  0  0  0  0  0  0  0
   -3.3303    4.3096    1.2252 C   0  0  0  1  0  0  0  0  0  0  0  0
   -1.9735    4.0910    1.0783 C   0  0  0  1  0  0  0  0  0  0  0  0
   -1.1416    5.1304    0.6920 C   0  0  0  1  0  0  0  0  0  0  0  0
   -1.6684    6.3867    0.4589 C   0  0  0  1  0  0  0  0  0  0  0  0
   -3.0292    6.6062    0.6062 C   0  0  0  1  0  0  0  0  0  0  0  0
   -3.8584    5.5697    0.9914 C   0  0  0  1  0  0  0  0  0  0  0  0
   -1.3971    2.7194    1.3387 C   0  0  0  1  0  0  0  0  0  0  0  0
   -0.1213    4.9648    0.5776 H   0  0  0  1  0  0  0  0  0  0  0  0
   -1.0438    7.1676    0.1730 H   0  0  0  1  0  0  0  0  0  0  0  0
   -3.4261    7.5506    0.4269 H   0  0  0  1  0  0  0  0  0  0  0  0
   -4.8788    5.7352    1.1058 H   0  0  0  1  0  0  0  0  0  0  0  0
   -1.6863    2.0708    0.5383 H   0  0  0  1  0  0  0  0  0  0  0  0
   -0.3303    2.7980    1.3670 H   0  0  0  1  0  0  0  0  0  0  0  0
  1  4  1  0  0  0  0
  2  4  1  0  0  0  0
  2  5  2  0  0  0  0
  2  6  1  0  0  0  0
  3  4  1  0  0  0  0
  3  7  1  0  0  0  0
  3  8  1  0  0  0  0
  4 26  1  0  0  0  0
  6  9  1  0  0  0  0
  6 12  1  0  0  0  0
  8 10  1  0  0  0  0
  8 11  2  0  0  0  0
  9 13  1  0  0  0  0
  9 14  1  0  0  0  0
  9 15  1  0  0  0  0
 10 16  1  0  0  0  0
 10 17  1  0  0  0  0
 10 18  1  0  0  0  0
 19 20  1  0  0  0  0
 20 21  4  0  0  0  0
 20 25  4  0  0  0  0
 21 22  4  0  0  0  0
 21 26  1  0  0  0  0
 22 23  4  0  0  0  0
 22 27  1  0  0  0  0
 23 24  4  0  0  0  0
 23 28  1  0  0  0  0
 24 25  4  0  0  0  0
 24 29  1  0  0  0  0
 25 30  1  0  0  0  0
 26 31  1  0  0  0  0
 26 32  1  0  0  0  0
M  END
> <BCLConfClusterSize>
1

> <ConfClashScore>
0 

> <ConfOneFourInteractionScore>
-0.985807 

> <ConfScore>
-0.143483 

> <ConfScorePBest>
0.00589714 

> <ConfTolerance>
0.33559 

> <RosettaParamsInstructions>
M  ROOT 3
M  POLY_N_BB 3
M  POLY_CA_BB 4
M  POLY_C_BB 2
M  POLY_O_BB 5
M  POLY_IGNORE 9 10 11 12 13 14 15 16 17 18 
M  POLY_UPPER 6
M  POLY_LOWER 8
M  POLY_CHG 0
M  POLY_PROPERTIES ALPHA_AA L_AA PROTEIN AROMATIC POLYMER 
M  END

$$$$



 32 32  0  0  0  0  0  0  0  0999 V2000
   -1.0263    1.9412   -0.5899 H   0  0  0  1  0  0  0  0  0  0  0  0
   -1.1054    0.3185    0.7717 C   0  0  0  1  0  0  0  0  0  0  0  0
   -2.9962    1.5208   -0.0851 N   0  0  0  1  0  0  0  0  0  0  0  0
   -1.5934    1.6653    0.2745 C   0  0  0  1  0  0  0  0  0  0  0  0
   -1.8876   -0.4935    1.2641 O   0  0  0  1  0  0  0  0  0  0  0  0
    0.1946    0.0420    0.6592 N   0  0  0  1  0  0  0  0  0  0  0  0
   -3.6774    1.6452    0.6084 H   0  0  0  1  0  0  0  0  0  0  0  0
   -3.3876    1.2244   -1.3276 C   0  0  0  1  0  0  0  0  0  0  0  0
    0.8401   -1.1539    1.1796 C   0  0  0  1  0  0  0  0  0  0  0  0
   -4.8816    0.9869   -1.5495 C   0  0  0  1  0  0  0  0  0  0  0  0
   -2.5897    1.0618   -2.2492 O   0  0  0  1  0  0  0  0  0  0  0  0
    0.7575    0.6933    0.1907 H   0  0  0  1  0  0  0  0  0  0  0  0
    1.1731   -1.7631    0.3654 H   0  0  0  1  0  0  0  0  0  0  0  0
    0.1426   -1.7050    1.7750 H   0  0  0  1  0  0  0  0  0  0  0  0
    1.6794   -0.8730    1.7810 H   0  0  0  1  0  0  0  0  0  0  0  0
   -5.4190    1.8930   -1.3621 H   0  0  0  1  0  0  0  0  0  0  0  0
   -5.2244    0.2246   -0.8814 H   0  0  0  1  0  0  0  0  0  0  0  0
   -5.0470    0.6769   -2.5601 H   0  0  0  1  0  0  0  0  0  0  0  0
   -4.1391    3.2984    1.5955 F   0  0  0  1  0  0  0  0  0  0  0  0
   -3.3302    4.3096    1.2252 C   0  0  0  1  0  0  0  0  0  0  0  0
   -1.9734    4.0909    1.0783 C   0  0  0  1  0  0  0  0  0  0  0  0
   -1.1418    5.1304    0.6920 C   0  0  0  1  0  0  0  0  0  0  0  0
   -1.6684    6.3868    0.4589 C   0  0  0  1  0  0  0  0  0  0  0  0
   -3.0291    6.6060    0.6062 C   0  0  0  1  0  0  0  0  0  0  0  0
   -3.8586    5.5697    0.9914 C   0  0  0  1  0  0  0  0  0  0  0  0
   -1.3969    2.7193    1.3387 C   0  0  0  1  0  0  0  0  0  0  0  0
   -0.1214    4.9649    0.5776 H   0  0  0  1  0  0  0  0  0  0  0  0
   -1.0437    7.1676    0.1729 H   0  0  0  1  0  0  0  0  0  0  0  0
   -3.4260    7.5505    0.4269 H   0  0  0  1  0  0  0  0  0  0  0  0
   -4.8789    5.7352    1.1058 H   0  0  0  1  0  0  0  0  0  0  0  0
   -0.3431    2.8368    1.4821 H   0  0  0  1  0  0  0  0  0  0  0  0
   -1.8412    2.3511    2.2398 H   0  0  0  1  0  0  0  0  0  0  0  0
  1  4  1  0  0  0  0
  2  4  1  0  0  0  0
  2  5  2  0  0  0  0
  2  6  1  0  0  0  0
  3  4  1  0  0  0  0
  3  7  1  0  0  0  0
  3  8  1  0  0  0  0
  4 26  1  0  0  0  0
  6  9  1  0  0  0  0
  6 12  1  0  0  0  0
  8 10  1  0  0  0  0
  8 11  2  0  0  0  0
  9 13  1  0  0  0  0
  9 14  1  0  0  0  0
  9 15  1  0  0  0  0
 10 16  1  0  0  0  0
 10 17  1  0  0  0  0
 10 18  1  0  0  0  0
 19 20  1  0  0  0  0
 20 21  4  0  0  0  0
 20 25  4  0  0  0  0
 21 22  4  0  0  0  0
 21 26  1  0  0  0  0
 22 23  4  0  0  0  0
 22 27  1  0  0  0  0
 23 24  4  0  0  0  0
 23 28  1  0  0  0  0
 24 25  4  0  0  0  0
 24 29  1  0  0  0  0
 25 30  1  0  0  0  0
 26 31  1  0  0  0  0
 26 32  1  0  0  0  0
M  END
> <BCLConfClusterSize>
1

> <ConfClashScore>
0 

> <ConfOneFourInteractionScore>
-0.987695 

> <ConfScore>
-0.142782 

> <ConfScorePBest>
0.00586866 

> <ConfTolerance>
0.414924 

> <RosettaParamsInstructions>
M  ROOT 3
M  POLY_N_BB 3
M  POLY_CA_BB 4
M  POLY_C_BB 2
M  POLY_O_BB 5
M  POLY_IGNORE 9 10 11 12 13 14 15 16 17 18 
M  POLY_UPPER 6
M  POLY_LOWER 8
M  POLY_CHG 0
M  POLY_PROPERTIES ALPHA_AA L_AA PROTEIN AROMATIC POLYMER 
M  END

$$$$



 32 32  0  0  0  0  0  0  0  0999 V2000
   -2.9334    2.1910    2.6768 H   0  0  0  1  0  0  0  0  0  0  0  0
   -1.4392    0.7420    2.9037 C   0  0  0  1  0  0  0  0  0  0  0  0
   -1.4367    3.0239    3.8033 N   0  0  0  1  0  0  0  0  0  0  0  0
   -1.8636    2.1827    2.6951 C   0  0  0  1  0  0  0  0  0  0  0  0
   -1.5669   -0.0966    2.0126 O   0  0  0  1  0  0  0  0  0  0  0  0
   -0.9261    0.4559    4.1037 N   0  0  0  1  0  0  0  0  0  0  0  0
   -0.5452    3.4298    3.7729 H   0  0  0  1  0  0  0  0  0  0  0  0
   -2.2180    3.2622    4.8606 C   0  0  0  1  0  0  0  0  0  0  0  0
   -0.3484   -0.8261    4.4787 C   0  0  0  1  0  0  0  0  0  0  0  0
   -1.7147    4.3166    5.8272 C   0  0  0  1  0  0  0  0  0  0  0  0
   -3.2805    2.6741    5.0541 O   0  0  0  1  0  0  0  0  0  0  0  0
   -0.9398    1.1627    4.7824 H   0  0  0  1  0  0  0  0  0  0  0  0
    0.1698   -1.2432    3.6406 H   0  0  0  1  0  0  0  0  0  0  0  0
   -1.1279   -1.4927    4.7835 H   0  0  0  1  0  0  0  0  0  0  0  0
    0.3375   -0.6849    5.2877 H   0  0  0  1  0  0  0  0  0  0  0  0
   -0.7533    4.0301    6.1994 H   0  0  0  1  0  0  0  0  0  0  0  0
   -2.4002    4.4078    6.6436 H   0  0  0  1  0  0  0  0  0  0  0  0
   -1.6355    5.2557    5.3206 H   0  0  0  1  0  0  0  0  0  0  0  0
   -4.1391    3.2984    1.5955 F   0  0  0  1  0  0  0  0  0  0  0  0
   -3.3302    4.3096    1.2252 C   0  0  0  1  0  0  0  0  0  0  0  0
   -1.9734    4.0909    1.0783 C   0  0  0  1  0  0  0  0  0  0  0  0
   -1.1418    5.1304    0.6920 C   0  0  0  1  0  0  0  0  0  0  0  0
   -1.6684    6.3868    0.4589 C   0  0  0  1  0  0  0  0  0  0  0  0
   -3.0291    6.6060    0.6062 C   0  0  0  1  0  0  0  0  0  0  0  0
   -3.8586    5.5697    0.9914 C   0  0  0  1  0  0  0  0  0  0  0  0
   -1.3969    2.7193    1.3387 C   0  0  0  1  0  0  0  0  0  0  0  0
   -0.1214    4.9649    0.5776 H   0  0  0  1  0  0  0  0  0  0  0  0
   -1.0437    7.1676    0.1729 H   0  0  0  1  0  0  0  0  0  0  0  0
   -3.4260    7.5505    0.4269 H   0  0  0  1  0  0  0  0  0  0  0  0
   -4.8789    5.7352    1.1058 H   0  0  0  1  0  0  0  0  0  0  0  0
   -1.7191    2.0511    0.5675 H   0  0  0  1  0  0  0  0  0  0  0  0
   -0.3287    2.7811    1.3345 H   0  0  0  1  0  0  0  0  0  0  0  0
  1  4  1  0  0  0  0
  2  4  1  0  0  0  0
  2  5  2  0  0  0  0
  2  6  1  0  0  0  0
  3  4  1  0  0  0  0
  3  7  1  0  0  0  0
  3  8  1  0  0  0  0
  4 26  1  0  0  0  0
  6  9  1  0  0  0  0
  6 12  1  0  0  0  0
  8 10  1  0  0  0  0
  8 11  2  0  0  0  0
  9 13  1  0  0  0  0
  9 14  1  0  0  0  0
  9 15  1  0  0  0  0
 10 16  1  0  0  0  0
 10 17  1  0  0  0  0
 10 18  1  0  0  0  0
 19 20  1  0  0  0  0
 20 21  4  0  0  0  0
 20 25  4  0  0  0  0
 21 22  4  0  0  0  0
 21 26  1  0  0  0  0
 22 23  4  0  0  0  0
 22 27  1  0  0  0  0
 23 24  4  0  0  0  0
 23 28  1  0  0  0  0
 24 25  4  0  0  0  0
 24 29  1  0  0  0  0
 25 30  1  0  0  0  0
 26 31  1  0  0  0  0
 26 32  1  0  0  0  0
M  END
> <BCLConfClusterSize>
1

> <ConfClashScore>
0 

> <ConfOneFourInteractionScore>
-0.94165 

> <ConfScore>
-0.138762 

> <ConfScorePBest>
0.00584018 

> <ConfTolerance>
0.319926 

> <RosettaParamsInstructions>
M  ROOT 3
M  POLY_N_BB 3
M  POLY_CA_BB 4
M  POLY_C_BB 2
M  POLY_O_BB 5
M  POLY_IGNORE 9 10 11 12 13 14 15 16 17 18 
M  POLY_UPPER 6
M  POLY_LOWER 8
M  POLY_CHG 0
M  POLY_PROPERTIES ALPHA_AA L_AA PROTEIN AROMATIC POLYMER 
M  END

$$$$



 32 32  0  0  0  0  0  0  0  0999 V2000
   -0.5534    2.7260   -0.6181 H   0  0  0  1  0  0  0  0  0  0  0  0
   -0.1171    0.8494    0.2509 C   0  0  0  1  0  0  0  0  0  0  0  0
   -2.2630    1.5636   -0.6633 N   0  0  0  1  0  0  0  0  0  0  0  0
   -1.0558    2.0198    0.0094 C   0  0  0  1  0  0  0  0  0  0  0  0
   -0.4019   -0.0426    1.0457 O   0  0  0  1  0  0  0  0  0  0  0  0
    1.0240    0.8622   -0.4548 N   0  0  0  1  0  0  0  0  0  0  0  0
   -2.9121    1.0101   -0.1809 H   0  0  0  1  0  0  0  0  0  0  0  0
   -2.4903    1.9011   -1.9496 C   0  0  0  1  0  0  0  0  0  0  0  0
    1.9721   -0.2413   -0.4198 C   0  0  0  1  0  0  0  0  0  0  0  0
   -3.7842    1.4460   -2.5858 C   0  0  0  1  0  0  0  0  0  0  0  0
   -1.6712    2.5593   -2.5879 O   0  0  0  1  0  0  0  0  0  0  0  0
    1.2260    1.6418   -1.0133 H   0  0  0  1  0  0  0  0  0  0  0  0
    1.4630   -1.1409   -0.1435 H   0  0  0  1  0  0  0  0  0  0  0  0
    2.7379   -0.0305    0.2972 H   0  0  0  1  0  0  0  0  0  0  0  0
    2.4124   -0.3637   -1.3872 H   0  0  0  1  0  0  0  0  0  0  0  0
   -3.6755    0.4411   -2.9368 H   0  0  0  1  0  0  0  0  0  0  0  0
   -4.0215    2.0873   -3.4089 H   0  0  0  1  0  0  0  0  0  0  0  0
   -4.5712    1.4877   -1.8621 H   0  0  0  1  0  0  0  0  0  0  0  0
   -4.1398    3.3019    1.6037 F   0  0  0  1  0  0  0  0  0  0  0  0
   -3.3319    4.3114    1.2268 C   0  0  0  1  0  0  0  0  0  0  0  0
   -1.9715    4.0914    1.0765 C   0  0  0  1  0  0  0  0  0  0  0  0
   -1.1416    5.1287    0.6948 C   0  0  0  1  0  0  0  0  0  0  0  0
   -1.6705    6.3878    0.4572 C   0  0  0  1  0  0  0  0  0  0  0  0
   -3.0268    6.6073    0.6071 C   0  0  0  1  0  0  0  0  0  0  0  0
   -3.8590    5.5669    0.9899 C   0  0  0  1  0  0  0  0  0  0  0  0
   -1.3961    2.7180    1.3297 C   0  0  0  1  0  0  0  0  0  0  0  0
   -0.1204    4.9646    0.5860 H   0  0  0  1  0  0  0  0  0  0  0  0
   -1.0467    7.1673    0.1662 H   0  0  0  1  0  0  0  0  0  0  0  0
   -3.4230    7.5529    0.4327 H   0  0  0  1  0  0  0  0  0  0  0  0
   -4.8802    5.7311    1.0987 H   0  0  0  1  0  0  0  0  0  0  0  0
   -0.5060    2.8132    1.9159 H   0  0  0  1  0  0  0  0  0  0  0  0
   -2.1136    2.1299    1.8628 H   0  0  0  1  0  0  0  0  0  0  0  0
  1  4  1  0  0  0  0
  2  4  1  0  0  0  0
  2  5  2  0  0  0  0
  2  6  1  0  0  0  0
  3  4  1  0  0  0  0
  3  7  1  0  0  0  0
  3  8  1  0  0  0  0
  4 26  1  0  0  0  0
  6  9  1  0  0  0  0
  6 12  1  0  0  0  0
  8 10  1  0  0  0  0
  8 11  2  0  0  0  0
  9 13  1  0  0  0  0
  9 14  1  0  0  0  0
  9 15  1  0  0  0  0
 10 16  1  0  0  0  0
 10 17  1  0  0  0  0
 10 18  1  0  0  0  0
 19 20  1  0  0  0  0
 20 21  4  0  0  0  0
 20 25  4  0  0  0  0
 21 22  4  0  0  0  0
 21 26  1  0  0  0  0
 22 23  4  0  0  0  0
 22 27  1  0  0  0  0
 23 24  4  0  0  0  0
 23 28  1  0  0  0  0
 24 25  4  0  0  0  0
 24 29  1  0  0  0  0
 25 30  1  0  0  0  0
 26 31  1  0  0  0  0
 26 32  1  0  0  0  0
M  END
> <BCLConfClusterSize>
1

> <ConfClashScore>
0 

> <ConfOneFourInteractionScore>
-0.971454 

> <ConfScore>
-0.138067 

> <ConfScorePBest>
0.0058117 

> <ConfTolerance>
0.389424 

> <RosettaParamsInstructions>
M  ROOT 3
M  POLY_N_BB 3
M  POLY_CA_BB 4
M  POLY_C_BB 2
M  POLY_O_BB 5
M  POLY_IGNORE 9 10 11 12 13 14 15 16 17 18 
M  POLY_UPPER 6
M  POLY_LOWER 8
M  POLY_CHG 0
M  POLY_PROPERTIES ALPHA_AA L_AA PROTEIN AROMATIC POLYMER 
M  END

$$$$



 32 32  0  0  0  0  0  0  0  0999 V2000
    0.3944    2.8062    0.2136 H   0  0  0  1  0  0  0  0  0  0  0  0
   -0.0393    0.7696    0.5606 C   0  0  0  1  0  0  0  0  0  0  0  0
   -1.1308    2.2286   -1.0572 N   0  0  0  1  0  0  0  0  0  0  0  0
   -0.4771    2.1861    0.2423 C   0  0  0  1  0  0  0  0  0  0  0  0
    0.3782    0.4747    1.6797 O   0  0  0  1  0  0  0  0  0  0  0  0
   -0.1216   -0.1548   -0.4186 N   0  0  0  1  0  0  0  0  0  0  0  0
   -2.0724    1.9649   -1.1218 H   0  0  0  1  0  0  0  0  0  0  0  0
   -0.4918    2.6146   -2.1652 C   0  0  0  1  0  0  0  0  0  0  0  0
    0.4304   -1.4859   -0.2151 C   0  0  0  1  0  0  0  0  0  0  0  0
   -1.3087    2.5813   -3.4422 C   0  0  0  1  0  0  0  0  0  0  0  0
    0.6818    2.9766   -2.1687 O   0  0  0  1  0  0  0  0  0  0  0  0
   -0.5540    0.0705   -1.2687 H   0  0  0  1  0  0  0  0  0  0  0  0
    1.3324   -1.4150    0.3563 H   0  0  0  1  0  0  0  0  0  0  0  0
    0.6437   -1.9322   -1.1639 H   0  0  0  1  0  0  0  0  0  0  0  0
   -0.2789   -2.0892    0.3120 H   0  0  0  1  0  0  0  0  0  0  0  0
   -1.5176    1.5656   -3.7062 H   0  0  0  1  0  0  0  0  0  0  0  0
   -0.7565    3.0482   -4.2309 H   0  0  0  1  0  0  0  0  0  0  0  0
   -2.2286    3.1066   -3.2907 H   0  0  0  1  0  0  0  0  0  0  0  0
   -4.1397    3.3019    1.6037 F   0  0  0  1  0  0  0  0  0  0  0  0
   -3.3319    4.3114    1.2268 C   0  0  0  1  0  0  0  0  0  0  0  0
   -1.9715    4.0915    1.0765 C   0  0  0  1  0  0  0  0  0  0  0  0
   -1.1416    5.1287    0.6948 C   0  0  0  1  0  0  0  0  0  0  0  0
   -1.6705    6.3877    0.4572 C   0  0  0  1  0  0  0  0  0  0  0  0
   -3.0268    6.6073    0.6071 C   0  0  0  1  0  0  0  0  0  0  0  0
   -3.8591    5.5669    0.9899 C   0  0  0  1  0  0  0  0  0  0  0  0
   -1.3961    2.7181    1.3297 C   0  0  0  1  0  0  0  0  0  0  0  0
   -0.1204    4.9645    0.5860 H   0  0  0  1  0  0  0  0  0  0  0  0
   -1.0466    7.1673    0.1662 H   0  0  0  1  0  0  0  0  0  0  0  0
   -3.4230    7.5530    0.4327 H   0  0  0  1  0  0  0  0  0  0  0  0
   -4.8802    5.7310    1.0988 H   0  0  0  1  0  0  0  0  0  0  0  0
   -0.8395    2.7566    2.2427 H   0  0  0  1  0  0  0  0  0  0  0  0
   -2.2113    2.0333    1.4371 H   0  0  0  1  0  0  0  0  0  0  0  0
  1  4  1  0  0  0  0
  2  4  1  0  0  0  0
  2  5  2  0  0  0  0
  2  6  1  0  0  0  0
  3  4  1  0  0  0  0
  3  7  1  0  0  0  0
  3  8  1  0  0  0  0
  4 26  1  0  0  0  0
  6  9  1  0  0  0  0
  6 12  1  0  0  0  0
  8 10  1  0  0  0  0
  8 11  2  0  0  0  0
  9 13  1  0  0  0  0
  9 14  1  0  0  0  0
  9 15  1  0  0  0  0
 10 16  1  0  0  0  0
 10 17  1  0  0  0  0
 10 18  1  0  0  0  0
 19 20  1  0  0  0  0
 20 21  4  0  0  0  0
 20 25  4  0  0  0  0
 21 22  4  0  0  0  0
 21 26  1  0  0  0  0
 22 23  4  0  0  0  0
 22 27  1  0  0  0  0
 23 24  4  0  0  0  0
 23 28  1  0  0  0  0
 24 25  4  0  0  0  0
 24 29  1  0  0  0  0
 25 30  1  0  0  0  0
 26 31  1  0  0  0  0
 26 32  1  0  0  0  0
M  END
> <BCLConfClusterSize>
1

> <ConfClashScore>
0 

> <ConfOneFourInteractionScore>
-0.94165 

> <ConfScore>
-0.136415 

> <ConfScorePBest>
0.00578322 

> <ConfTolerance>
0.369374 

> <RosettaParamsInstructions>
M  ROOT 3
M  POLY_N_BB 3
M  POLY_CA_BB 4
M  POLY_C_BB 2
M  POLY_O_BB 5
M  POLY_IGNORE 9 10 11 12 13 14 15 16 17 18 
M  POLY_UPPER 6
M  POLY_LOWER 8
M  POLY_CHG 0
M  POLY_PROPERTIES ALPHA_AA L_AA PROTEIN AROMATIC POLYMER 
M  END

$$$$



 32 32  0  0  0  0  0  0  0  0999 V2000
    0.0688    2.4076   -0.1710 H   0  0  0  1  0  0  0  0  0  0  0  0
   -0.5921    0.5225    0.5779 C   0  0  0  1  0  0  0  0  0  0  0  0
   -1.8086    1.9467   -0.9528 N   0  0  0  1  0  0  0  0  0  0  0  0
   -0.8508    1.9593    0.1428 C   0  0  0  1  0  0  0  0  0  0  0  0
   -1.4376   -0.3472    0.4472 O   0  0  0  1  0  0  0  0  0  0  0  0
    0.6224    0.3300    1.1003 N   0  0  0  1  0  0  0  0  0  0  0  0
   -2.7056    2.2848   -0.7494 H   0  0  0  1  0  0  0  0  0  0  0  0
   -1.6037    1.5259   -2.2060 C   0  0  0  1  0  0  0  0  0  0  0  0
    1.0186   -0.9347    1.7013 C   0  0  0  1  0  0  0  0  0  0  0  0
   -2.7823    1.6676   -3.1494 C   0  0  0  1  0  0  0  0  0  0  0  0
   -0.5344    1.0516   -2.5870 O   0  0  0  1  0  0  0  0  0  0  0  0
    1.2690    1.0661    1.0779 H   0  0  0  1  0  0  0  0  0  0  0  0
    0.3348   -1.1877    2.4845 H   0  0  0  1  0  0  0  0  0  0  0  0
    2.0053   -0.8438    2.1052 H   0  0  0  1  0  0  0  0  0  0  0  0
    1.0070   -1.7026    0.9562 H   0  0  0  1  0  0  0  0  0  0  0  0
   -3.5804    1.0346   -2.8216 H   0  0  0  1  0  0  0  0  0  0  0  0
   -2.4846    1.3831   -4.1370 H   0  0  0  1  0  0  0  0  0  0  0  0
   -3.1138    2.6849   -3.1553 H   0  0  0  1  0  0  0  0  0  0  0  0
   -4.1398    3.3019    1.6037 F   0  0  0  1  0  0  0  0  0  0  0  0
   -3.3319    4.3114    1.2268 C   0  0  0  1  0  0  0  0  0  0  0  0
   -1.9715    4.0914    1.0765 C   0  0  0  1  0  0  0  0  0  0  0  0
   -1.1416    5.1287    0.6948 C   0  0  0  1  0  0  0  0  0  0  0  0
   -1.6705    6.3878    0.4572 C   0  0  0  1  0  0  0  0  0  0  0  0
   -3.0268    6.6073    0.6071 C   0  0  0  1  0  0  0  0  0  0  0  0
   -3.8590    5.5669    0.9899 C   0  0  0  1  0  0  0  0  0  0  0  0
   -1.3961    2.7180    1.3297 C   0  0  0  1  0  0  0  0  0  0  0  0
   -0.1204    4.9646    0.5860 H   0  0  0  1  0  0  0  0  0  0  0  0
   -1.0467    7.1673    0.1662 H   0  0  0  1  0  0  0  0  0  0  0  0
   -3.4230    7.5529    0.4327 H   0  0  0  1  0  0  0  0  0  0  0  0
   -4.8802    5.7311    1.0987 H   0  0  0  1  0  0  0  0  0  0  0  0
   -0.5972    2.8302    2.0326 H   0  0  0  1  0  0  0  0  0  0  0  0
   -2.1714    2.1209    1.7626 H   0  0  0  1  0  0  0  0  0  0  0  0
  1  4  1  0  0  0  0
  2  4  1  0  0  0  0
  2  5  2  0  0  0  0
  2  6  1  0  0  0  0
  3  4  1  0  0  0  0
  3  7  1  0  0  0  0
  3  8  1  0  0  0  0
  4 26  1  0  0  0  0
  6  9  1  0  0  0  0
  6 12  1  0  0  0  0
  8 10  1  0  0  0  0
  8 11  2  0  0  0  0
  9 13  1  0  0  0  0
  9 14  1  0  0  0  0
  9 15  1  0  0  0  0
 10 16  1  0  0  0  0
 10 17  1  0  0  0  0
 10 18  1  0  0  0  0
 19 20  1  0  0  0  0
 20 21  4  0  0  0  0
 20 25  4  0  0  0  0
 21 22  4  0  0  0  0
 21 26  1  0  0  0  0
 22 23  4  0  0  0  0
 22 27  1  0  0  0  0
 23 24  4  0  0  0  0
 23 28  1  0  0  0  0
 24 25  4  0  0  0  0
 24 29  1  0  0  0  0
 25 30  1  0  0  0  0
 26 31  1  0  0  0  0
 26 32  1  0  0  0  0
M  END
> <BCLConfClusterSize>
1

> <ConfClashScore>
0 

> <ConfOneFourInteractionScore>
-0.987695 

> <ConfScore>
-0.134064 

> <ConfScorePBest>
0.00575474 

> <ConfTolerance>
0.40884 

> <RosettaParamsInstructions>
M  ROOT 3
M  POLY_N_BB 3
M  POLY_CA_BB 4
M  POLY_C_BB 2
M  POLY_O_BB 5
M  POLY_IGNORE 9 10 11 12 13 14 15 16 17 18 
M  POLY_UPPER 6
M  POLY_LOWER 8
M  POLY_CHG 0
M  POLY_PROPERTIES ALPHA_AA L_AA PROTEIN AROMATIC POLYMER 
M  END

$$$$



 32 32  0  0  0  0  0  0  0  0999 V2000
   -2.7872    2.0287    2.7645 H   0  0  0  1  0  0  0  0  0  0  0  0
   -1.0497    0.8445    2.9829 C   0  0  0  1  0  0  0  0  0  0  0  0
   -1.3440    3.1755    3.7064 N   0  0  0  1  0  0  0  0  0  0  0  0
   -1.7288    2.1779    2.7144 C   0  0  0  1  0  0  0  0  0  0  0  0
   -1.5529   -0.2360    2.7397 O   0  0  0  1  0  0  0  0  0  0  0  0
    0.1706    0.9089    3.5178 N   0  0  0  1  0  0  0  0  0  0  0  0
   -0.5031    3.6575    3.5617 H   0  0  0  1  0  0  0  0  0  0  0  0
   -2.0523    3.4820    4.7987 C   0  0  0  1  0  0  0  0  0  0  0  0
    0.9997   -0.2422    3.8425 C   0  0  0  1  0  0  0  0  0  0  0  0
   -1.4197    4.4972    5.7306 C   0  0  0  1  0  0  0  0  0  0  0  0
   -3.1467    2.9834    5.0477 O   0  0  0  1  0  0  0  0  0  0  0  0
    0.5363    1.7983    3.7064 H   0  0  0  1  0  0  0  0  0  0  0  0
    0.5519   -0.7898    4.6454 H   0  0  0  1  0  0  0  0  0  0  0  0
    1.9727    0.0912    4.1375 H   0  0  0  1  0  0  0  0  0  0  0  0
    1.0840   -0.8744    2.9834 H   0  0  0  1  0  0  0  0  0  0  0  0
   -2.0034    5.3939    5.7312 H   0  0  0  1  0  0  0  0  0  0  0  0
   -0.4275    4.7180    5.3965 H   0  0  0  1  0  0  0  0  0  0  0  0
   -1.3818    4.0960    6.7218 H   0  0  0  1  0  0  0  0  0  0  0  0
   -4.1397    3.3019    1.6037 F   0  0  0  1  0  0  0  0  0  0  0  0
   -3.3319    4.3114    1.2268 C   0  0  0  1  0  0  0  0  0  0  0  0
   -1.9715    4.0915    1.0765 C   0  0  0  1  0  0  0  0  0  0  0  0
   -1.1416    5.1287    0.6948 C   0  0  0  1  0  0  0  0  0  0  0  0
   -1.6705    6.3877    0.4572 C   0  0  0  1  0  0  0  0  0  0  0  0
   -3.0268    6.6073    0.6071 C   0  0  0  1  0  0  0  0  0  0  0  0
   -3.8591    5.5669    0.9899 C   0  0  0  1  0  0  0  0  0  0  0  0
   -1.3961    2.7181    1.3297 C   0  0  0  1  0  0  0  0  0  0  0  0
   -0.1204    4.9645    0.5860 H   0  0  0  1  0  0  0  0  0  0  0  0
   -1.0466    7.1673    0.1662 H   0  0  0  1  0  0  0  0  0  0  0  0
   -3.4230    7.5530    0.4327 H   0  0  0  1  0  0  0  0  0  0  0  0
   -4.8802    5.7310    1.0988 H   0  0  0  1  0  0  0  0  0  0  0  0
   -1.7892    2.0439    0.5977 H   0  0  0  1  0  0  0  0  0  0  0  0
   -0.3320    2.7712    1.2315 H   0  0  0  1  0  0  0  0  0  0  0  0
  1  4  1  0  0  0  0
  2  4  1  0  0  0  0
  2  5  2  0  0  0  0
  2  6  1  0  0  0  0
  3  4  1  0  0  0  0
  3  7  1  0  0  0  0
  3  8  1  0  0  0  0
  4 26  1  0  0  0  0
  6  9  1  0  0  0  0
  6 12  1  0  0  0  0
  8 10  1  0  0  0  0
  8 11  2  0  0  0  0
  9 13  1  0  0  0  0
  9 14  1  0  0  0  0
  9 15  1  0  0  0  0
 10 16  1  0  0  0  0
 10 17  1  0  0  0  0
 10 18  1  0  0  0  0
 19 20  1  0  0  0  0
 20 21  4  0  0  0  0
 20 25  4  0  0  0  0
 21 22  4  0  0  0  0
 21 26  1  0  0  0  0
 22 23  4  0  0  0  0
 22 27  1  0  0  0  0
 23 24  4  0  0  0  0
 23 28  1  0  0  0  0
 24 25  4  0  0  0  0
 24 29  1  0  0  0  0
 25 30  1  0  0  0  0
 26 31  1  0  0  0  0
 26 32  1  0  0  0  0
M  END
> <BCLConfClusterSize>
1

> <ConfClashScore>
0 

> <ConfOneFourInteractionScore>
-0.960318 

> <ConfScore>
-0.1272 

> <ConfScorePBest>
0.00572626 

> <ConfTolerance>
0.348256 

> <RosettaParamsInstructions>
M  ROOT 3
M  POLY_N_BB 3
M  POLY_CA_BB 4
M  POLY_C_BB 2
M  POLY_O_BB 5
M  POLY_IGNORE 9 10 11 12 13 14 15 16 17 18 
M  POLY_UPPER 6
M  POLY_LOWER 8
M  POLY_CHG 0
M  POLY_PROPERTIES ALPHA_AA L_AA PROTEIN AROMATIC POLYMER 
M  END

$$$$



 32 32  0  0  0  0  0  0  0  0999 V2000
   -2.5777    2.1441    2.9609 H   0  0  0  1  0  0  0  0  0  0  0  0
   -1.0511    0.7092    2.7775 C   0  0  0  1  0  0  0  0  0  0  0  0
   -0.8534    3.0053    3.6807 N   0  0  0  1  0  0  0  0  0  0  0  0
   -1.5347    2.1483    2.7220 C   0  0  0  1  0  0  0  0  0  0  0  0
   -0.0063    0.4134    3.3337 O   0  0  0  1  0  0  0  0  0  0  0  0
   -1.8427   -0.1952    2.1812 N   0  0  0  1  0  0  0  0  0  0  0  0
   -0.3022    3.7437    3.3470 H   0  0  0  1  0  0  0  0  0  0  0  0
   -0.9532    2.8205    5.0002 C   0  0  0  1  0  0  0  0  0  0  0  0
   -1.4805   -1.6014    2.0838 C   0  0  0  1  0  0  0  0  0  0  0  0
   -0.1519    3.7768    5.8618 C   0  0  0  1  0  0  0  0  0  0  0  0
   -1.6448    1.9378    5.5014 O   0  0  0  1  0  0  0  0  0  0  0  0
   -2.6945    0.1014    1.7979 H   0  0  0  1  0  0  0  0  0  0  0  0
   -0.4325   -1.6874    1.8860 H   0  0  0  1  0  0  0  0  0  0  0  0
   -2.0321   -2.0572    1.2883 H   0  0  0  1  0  0  0  0  0  0  0  0
   -1.7107   -2.0933    3.0057 H   0  0  0  1  0  0  0  0  0  0  0  0
    0.4344    4.4162    5.2354 H   0  0  0  1  0  0  0  0  0  0  0  0
    0.4947    3.2192    6.5066 H   0  0  0  1  0  0  0  0  0  0  0  0
   -0.8193    4.3700    6.4514 H   0  0  0  1  0  0  0  0  0  0  0  0
   -4.1397    3.3020    1.6037 F   0  0  0  1  0  0  0  0  0  0  0  0
   -3.3318    4.3115    1.2268 C   0  0  0  1  0  0  0  0  0  0  0  0
   -1.9715    4.0914    1.0765 C   0  0  0  1  0  0  0  0  0  0  0  0
   -1.1417    5.1287    0.6949 C   0  0  0  1  0  0  0  0  0  0  0  0
   -1.6704    6.3879    0.4572 C   0  0  0  1  0  0  0  0  0  0  0  0
   -3.0268    6.6072    0.6071 C   0  0  0  1  0  0  0  0  0  0  0  0
   -3.8592    5.5669    0.9899 C   0  0  0  1  0  0  0  0  0  0  0  0
   -1.3961    2.7179    1.3298 C   0  0  0  1  0  0  0  0  0  0  0  0
   -0.1206    4.9645    0.5860 H   0  0  0  1  0  0  0  0  0  0  0  0
   -1.0466    7.1674    0.1662 H   0  0  0  1  0  0  0  0  0  0  0  0
   -3.4229    7.5529    0.4327 H   0  0  0  1  0  0  0  0  0  0  0  0
   -4.8803    5.7311    1.0988 H   0  0  0  1  0  0  0  0  0  0  0  0
   -1.8781    2.0398    0.6569 H   0  0  0  1  0  0  0  0  0  0  0  0
   -0.3510    2.7621    1.1045 H   0  0  0  1  0  0  0  0  0  0  0  0
  1  4  1  0  0  0  0
  2  4  1  0  0  0  0
  2  5  2  0  0  0  0
  2  6  1  0  0  0  0
  3  4  1  0  0  0  0
  3  7  1  0  0  0  0
  3  8  1  0  0  0  0
  4 26  1  0  0  0  0
  6  9  1  0  0  0  0
  6 12  1  0  0  0  0
  8 10  1  0  0  0  0
  8 11  2  0  0  0  0
  9 13  1  0  0  0  0
  9 14  1  0  0  0  0
  9 15  1  0  0  0  0
 10 16  1  0  0  0  0
 10 17  1  0  0  0  0
 10 18  1  0  0  0  0
 19 20  1  0  0  0  0
 20 21  4  0  0  0  0
 20 25  4  0  0  0  0
 21 22  4  0  0  0  0
 21 26  1  0  0  0  0
 22 23  4  0  0  0  0
 22 27  1  0  0  0  0
 23 24  4  0  0  0  0
 23 28  1  0  0  0  0
 24 25  4  0  0  0  0
 24 29  1  0  0  0  0
 25 30  1  0  0  0  0
 26 31  1  0  0  0  0
 26 32  1  0  0  0  0
M  END
> <BCLConfClusterSize>
1

> <ConfClashScore>
0 

> <ConfOneFourInteractionScore>
-0.985807 

> <ConfScore>
-0.125446 

> <ConfScorePBest>
0.00569778 

> <ConfTolerance>
0.298512 

> <RosettaParamsInstructions>
M  ROOT 3
M  POLY_N_BB 3
M  POLY_CA_BB 4
M  POLY_C_BB 2
M  POLY_O_BB 5
M  POLY_IGNORE 9 10 11 12 13 14 15 16 17 18 
M  POLY_UPPER 6
M  POLY_LOWER 8
M  POLY_CHG 0
M  POLY_PROPERTIES ALPHA_AA L_AA PROTEIN AROMATIC POLYMER 
M  END

$$$$



 32 32  0  0  0  0  0  0  0  0999 V2000
   -1.3476    3.0852    3.4290 H   0  0  0  1  0  0  0  0  0  0  0  0
   -0.3594    1.2476    3.0911 C   0  0  0  1  0  0  0  0  0  0  0  0
    0.5652    3.4230    2.7196 N   0  0  0  1  0  0  0  0  0  0  0  0
   -0.6846    2.6780    2.6944 C   0  0  0  1  0  0  0  0  0  0  0  0
    0.2691    0.5039    2.3394 O   0  0  0  1  0  0  0  0  0  0  0  0
   -0.7974    0.8653    4.2916 N   0  0  0  1  0  0  0  0  0  0  0  0
    1.2907    3.1819    2.1064 H   0  0  0  1  0  0  0  0  0  0  0  0
    0.7318    4.4734    3.6093 C   0  0  0  1  0  0  0  0  0  0  0  0
   -0.5319   -0.4288    4.9021 C   0  0  0  1  0  0  0  0  0  0  0  0
    2.0191    5.2657    3.5780 C   0  0  0  1  0  0  0  0  0  0  0  0
   -0.1686    4.7237    4.3897 O   0  0  0  1  0  0  0  0  0  0  0  0
   -1.3388    1.5040    4.8009 H   0  0  0  1  0  0  0  0  0  0  0  0
    0.4303   -0.4125    5.3698 H   0  0  0  1  0  0  0  0  0  0  0  0
   -0.5492   -1.1885    4.1488 H   0  0  0  1  0  0  0  0  0  0  0  0
   -1.2817   -0.6370    5.6366 H   0  0  0  1  0  0  0  0  0  0  0  0
    2.8024    4.6925    4.0284 H   0  0  0  1  0  0  0  0  0  0  0  0
    1.8888    6.1790    4.1201 H   0  0  0  1  0  0  0  0  0  0  0  0
    2.2772    5.4864    2.5633 H   0  0  0  1  0  0  0  0  0  0  0  0
   -4.1391    3.2983    1.5955 F   0  0  0  1  0  0  0  0  0  0  0  0
   -3.3303    4.3096    1.2252 C   0  0  0  1  0  0  0  0  0  0  0  0
   -1.9735    4.0910    1.0783 C   0  0  0  1  0  0  0  0  0  0  0  0
   -1.1416    5.1304    0.6920 C   0  0  0  1  0  0  0  0  0  0  0  0
   -1.6684    6.3867    0.4589 C   0  0  0  1  0  0  0  0  0  0  0  0
   -3.0292    6.6062    0.6062 C   0  0  0  1  0  0  0  0  0  0  0  0
   -3.8584    5.5697    0.9914 C   0  0  0  1  0  0  0  0  0  0  0  0
   -1.3971    2.7194    1.3387 C   0  0  0  1  0  0  0  0  0  0  0  0
   -0.1213    4.9648    0.5776 H   0  0  0  1  0  0  0  0  0  0  0  0
   -1.0438    7.1676    0.1730 H   0  0  0  1  0  0  0  0  0  0  0  0
   -3.4261    7.5506    0.4269 H   0  0  0  1  0  0  0  0  0  0  0  0
   -4.8788    5.7352    1.1058 H   0  0  0  1  0  0  0  0  0  0  0  0
   -2.1890    1.9998    1.3364 H   0  0  0  1  0  0  0  0  0  0  0  0
   -0.6958    2.4811    0.5664 H   0  0  0  1  0  0  0  0  0  0  0  0
  1  4  1  0  0  0  0
  2  4  1  0  0  0  0
  2  5  2  0  0  0  0
  2  6  1  0  0  0  0
  3  4  1  0  0  0  0
  3  7  1  0  0  0  0
  3  8  1  0  0  0  0
  4 26  1  0  0  0  0
  6  9  1  0  0  0  0
  6 12  1  0  0  0  0
  8 10  1  0  0  0  0
  8 11  2  0  0  0  0
  9 13  1  0  0  0  0
  9 14  1  0  0  0  0
  9 15  1  0  0  0  0
 10 16  1  0  0  0  0
 10 17  1  0  0  0  0
 10 18  1  0  0  0  0
 19 20  1  0  0  0  0
 20 21  4  0  0  0  0
 20 25  4  0  0  0  0
 21 22  4  0  0  0  0
 21 26  1  0  0  0  0
 22 23  4  0  0  0  0
 22 27  1  0  0  0  0
 23 24  4  0  0  0  0
 23 28  1  0  0  0  0
 24 25  4  0  0  0  0
 24 29  1  0  0  0  0
 25 30  1  0  0  0  0
 26 31  1  0  0  0  0
 26 32  1  0  0  0  0
M  END
> <BCLConfClusterSize>
1

> <ConfClashScore>
0 

> <ConfOneFourInteractionScore>
-0.972275 

> <ConfScore>
-0.114516 

> <ConfScorePBest>
0.0056693 

> <ConfTolerance>
0.332314 

> <RosettaParamsInstructions>
M  ROOT 3
M  POLY_N_BB 3
M  POLY_CA_BB 4
M  POLY_C_BB 2
M  POLY_O_BB 5
M  POLY_IGNORE 9 10 11 12 13 14 15 16 17 18 
M  POLY_UPPER 6
M  POLY_LOWER 8
M  POLY_CHG 0
M  POLY_PROPERTIES ALPHA_AA L_AA PROTEIN AROMATIC POLYMER 
M  END

$$$$



 32 32  0  0  0  0  0  0  0  0999 V2000
   -1.6106    1.8793   -0.5870 H   0  0  0  1  0  0  0  0  0  0  0  0
    0.2575    2.8604   -0.5245 C   0  0  0  1  0  0  0  0  0  0  0  0
   -0.2841    0.7095    0.4842 N   0  0  0  1  0  0  0  0  0  0  0  0
   -0.8207    2.0130    0.1224 C   0  0  0  1  0  0  0  0  0  0  0  0
    0.0085    3.5858   -1.4733 O   0  0  0  1  0  0  0  0  0  0  0  0
    1.4751    2.7563    0.0102 N   0  0  0  1  0  0  0  0  0  0  0  0
   -0.2313    0.4663    1.4320 H   0  0  0  1  0  0  0  0  0  0  0  0
    0.1390   -0.1671   -0.4310 C   0  0  0  1  0  0  0  0  0  0  0  0
    2.6671    3.4198   -0.4964 C   0  0  0  1  0  0  0  0  0  0  0  0
    0.5747   -1.5178    0.1026 C   0  0  0  1  0  0  0  0  0  0  0  0
    0.1796    0.0875   -1.6340 O   0  0  0  1  0  0  0  0  0  0  0  0
    1.5744    2.1903    0.8040 H   0  0  0  1  0  0  0  0  0  0  0  0
    2.3838    4.2963   -1.0410 H   0  0  0  1  0  0  0  0  0  0  0  0
    3.1977    2.7537   -1.1442 H   0  0  0  1  0  0  0  0  0  0  0  0
    3.2962    3.6974    0.3234 H   0  0  0  1  0  0  0  0  0  0  0  0
    1.3789   -1.3855    0.7959 H   0  0  0  1  0  0  0  0  0  0  0  0
    0.9017   -2.1332   -0.7093 H   0  0  0  1  0  0  0  0  0  0  0  0
   -0.2491   -1.9880    0.5979 H   0  0  0  1  0  0  0  0  0  0  0  0
   -4.1391    3.2985    1.5955 F   0  0  0  1  0  0  0  0  0  0  0  0
   -3.3302    4.3097    1.2252 C   0  0  0  1  0  0  0  0  0  0  0  0
   -1.9734    4.0909    1.0783 C   0  0  0  1  0  0  0  0  0  0  0  0
   -1.1417    5.1304    0.6920 C   0  0  0  1  0  0  0  0  0  0  0  0
   -1.6684    6.3868    0.4589 C   0  0  0  1  0  0  0  0  0  0  0  0
   -3.0292    6.6060    0.6062 C   0  0  0  1  0  0  0  0  0  0  0  0
   -3.8585    5.5697    0.9914 C   0  0  0  1  0  0  0  0  0  0  0  0
   -1.3970    2.7192    1.3387 C   0  0  0  1  0  0  0  0  0  0  0  0
   -0.1214    4.9649    0.5776 H   0  0  0  1  0  0  0  0  0  0  0  0
   -1.0438    7.1677    0.1729 H   0  0  0  1  0  0  0  0  0  0  0  0
   -3.4261    7.5504    0.4269 H   0  0  0  1  0  0  0  0  0  0  0  0
   -4.8789    5.7352    1.1058 H   0  0  0  1  0  0  0  0  0  0  0  0
   -0.6152    2.8216    2.0621 H   0  0  0  1  0  0  0  0  0  0  0  0
   -2.1759    2.1044    1.7391 H   0  0  0  1  0  0  0  0  0  0  0  0
  1  4  1  0  0  0  0
  2  4  1  0  0  0  0
  2  5  2  0  0  0  0
  2  6  1  0  0  0  0
  3  4  1  0  0  0  0
  3  7  1  0  0  0  0
  3  8  1  0  0  0  0
  4 26  1  0  0  0  0
  6  9  1  0  0  0  0
  6 12  1  0  0  0  0
  8 10  1  0  0  0  0
  8 11  2  0  0  0  0
  9 13  1  0  0  0  0
  9 14  1  0  0  0  0
  9 15  1  0  0  0  0
 10 16  1  0  0  0  0
 10 17  1  0  0  0  0
 10 18  1  0  0  0  0
 19 20  1  0  0  0  0
 20 21  4  0  0  0  0
 20 25  4  0  0  0  0
 21 22  4  0  0  0  0
 21 26  1  0  0  0  0
 22 23  4  0  0  0  0
 22 27  1  0  0  0  0
 23 24  4  0  0  0  0
 23 28  1  0  0  0  0
 24 25  4  0  0  0  0
 24 29  1  0  0  0  0
 25 30  1  0  0  0  0
 26 31  1  0  0  0  0
 26 32  1  0  0  0  0
M  END
> <BCLConfClusterSize>
1

> <ConfClashScore>
0 

> <ConfOneFourInteractionScore>
-0.956443 

> <ConfScore>
-0.110783 

> <ConfScorePBest>
0.00564082 

> <ConfTolerance>
0.427472 

> <RosettaParamsInstructions>
M  ROOT 3
M  POLY_N_BB 3
M  POLY_CA_BB 4
M  POLY_C_BB 2
M  POLY_O_BB 5
M  POLY_IGNORE 9 10 11 12 13 14 15 16 17 18 
M  POLY_UPPER 6
M  POLY_LOWER 8
M  POLY_CHG 0
M  POLY_PROPERTIES ALPHA_AA L_AA PROTEIN AROMATIC POLYMER 
M  END

$$$$



 32 32  0  0  0  0  0  0  0  0999 V2000
    0.5685    3.5002    1.2754 H   0  0  0  1  0  0  0  0  0  0  0  0
    0.7282    1.3942    1.4325 C   0  0  0  1  0  0  0  0  0  0  0  0
    0.1443    2.6691   -0.5698 N   0  0  0  1  0  0  0  0  0  0  0  0
    0.0544    2.6479    0.8826 C   0  0  0  1  0  0  0  0  0  0  0  0
    1.1388    1.2775    2.5723 O   0  0  0  1  0  0  0  0  0  0  0  0
    0.8334    0.4100    0.5383 N   0  0  0  1  0  0  0  0  0  0  0  0
   -0.6827    2.6472   -1.0952 H   0  0  0  1  0  0  0  0  0  0  0  0
    1.3150    2.7176   -1.2118 C   0  0  0  1  0  0  0  0  0  0  0  0
    1.5547   -0.8358    0.7515 C   0  0  0  1  0  0  0  0  0  0  0  0
    1.2794    2.5969   -2.7355 C   0  0  0  1  0  0  0  0  0  0  0  0
    2.3893    2.7714   -0.6191 O   0  0  0  1  0  0  0  0  0  0  0  0
    0.3917    0.5354   -0.3275 H   0  0  0  1  0  0  0  0  0  0  0  0
    1.2236   -1.2888    1.6626 H   0  0  0  1  0  0  0  0  0  0  0  0
    2.6036   -0.6341    0.8145 H   0  0  0  1  0  0  0  0  0  0  0  0
    1.3673   -1.5006   -0.0657 H   0  0  0  1  0  0  0  0  0  0  0  0
    1.5682    1.6074   -3.0223 H   0  0  0  1  0  0  0  0  0  0  0  0
    1.9574    3.3046   -3.1650 H   0  0  0  1  0  0  0  0  0  0  0  0
    0.2878    2.7944   -3.0857 H   0  0  0  1  0  0  0  0  0  0  0  0
   -4.1391    3.2985    1.5955 F   0  0  0  1  0  0  0  0  0  0  0  0
   -3.3302    4.3097    1.2252 C   0  0  0  1  0  0  0  0  0  0  0  0
   -1.9734    4.0909    1.0783 C   0  0  0  1  0  0  0  0  0  0  0  0
   -1.1417    5.1304    0.6920 C   0  0  0  1  0  0  0  0  0  0  0  0
   -1.6684    6.3868    0.4589 C   0  0  0  1  0  0  0  0  0  0  0  0
   -3.0292    6.6060    0.6062 C   0  0  0  1  0  0  0  0  0  0  0  0
   -3.8585    5.5697    0.9914 C   0  0  0  1  0  0  0  0  0  0  0  0
   -1.3970    2.7192    1.3387 C   0  0  0  1  0  0  0  0  0  0  0  0
   -0.1214    4.9649    0.5776 H   0  0  0  1  0  0  0  0  0  0  0  0
   -1.0438    7.1677    0.1729 H   0  0  0  1  0  0  0  0  0  0  0  0
   -3.4261    7.5504    0.4269 H   0  0  0  1  0  0  0  0  0  0  0  0
   -4.8789    5.7352    1.1058 H   0  0  0  1  0  0  0  0  0  0  0  0
   -1.4458    2.5114    2.3872 H   0  0  0  1  0  0  0  0  0  0  0  0
   -1.9692    1.9907    0.8032 H   0  0  0  1  0  0  0  0  0  0  0  0
  1  4  1  0  0  0  0
  2  4  1  0  0  0  0
  2  5  2  0  0  0  0
  2  6  1  0  0  0  0
  3  4  1  0  0  0  0
  3  7  1  0  0  0  0
  3  8  1  0  0  0  0
  4 26  1  0  0  0  0
  6  9  1  0  0  0  0
  6 12  1  0  0  0  0
  8 10  1  0  0  0  0
  8 11  2  0  0  0  0
  9 13  1  0  0  0  0
  9 14  1  0  0  0  0
  9 15  1  0  0  0  0
 10 16  1  0  0  0  0
 10 17  1  0  0  0  0
 10 18  1  0  0  0  0
 19 20  1  0  0  0  0
 20 21  4  0  0  0  0
 20 25  4  0  0  0  0
 21 22  4  0  0  0  0
 21 26  1  0  0  0  0
 22 23  4  0  0  0  0
 22 27  1  0  0  0  0
 23 24  4  0  0  0  0
 23 28  1  0  0  0  0
 24 25  4  0  0  0  0
 24 29  1  0  0  0  0
 25 30  1  0  0  0  0
 26 31  1  0  0  0  0
 26 32  1  0  0  0  0
M  END
> <BCLConfClusterSize>
1

> <ConfClashScore>
0 

> <ConfOneFourInteractionScore>
-0.930333 

> <ConfScore>
-0.10765 

> <ConfScorePBest>
0.00561234 

> <ConfTolerance>
0.472623 

> <RosettaParamsInstructions>
M  ROOT 3
M  POLY_N_BB 3
M  POLY_CA_BB 4
M  POLY_C_BB 2
M  POLY_O_BB 5
M  POLY_IGNORE 9 10 11 12 13 14 15 16 17 18 
M  POLY_UPPER 6
M  POLY_LOWER 8
M  POLY_CHG 0
M  POLY_PROPERTIES ALPHA_AA L_AA PROTEIN AROMATIC POLYMER 
M  END

$$$$



 32 32  0  0  0  0  0  0  0  0999 V2000
   -1.0052    0.9305    0.3027 H   0  0  0  1  0  0  0  0  0  0  0  0
   -2.6744    1.7869   -0.6259 C   0  0  0  1  0  0  0  0  0  0  0  0
   -0.3289    2.4544   -0.8894 N   0  0  0  1  0  0  0  0  0  0  0  0
   -1.3164    1.9188    0.0356 C   0  0  0  1  0  0  0  0  0  0  0  0
   -3.0094    2.5263   -1.5366 O   0  0  0  1  0  0  0  0  0  0  0  0
   -3.4619    0.8198   -0.1469 N   0  0  0  1  0  0  0  0  0  0  0  0
   -0.6337    3.0086   -1.6380 H   0  0  0  1  0  0  0  0  0  0  0  0
    1.0283    2.2079   -0.7485 C   0  0  0  1  0  0  0  0  0  0  0  0
   -4.8356    0.7008   -0.6089 C   0  0  0  1  0  0  0  0  0  0  0  0
    1.9798    2.7492   -1.7782 C   0  0  0  1  0  0  0  0  0  0  0  0
    1.4056    1.5580    0.2095 O   0  0  0  1  0  0  0  0  0  0  0  0
   -3.1131    0.1891    0.5172 H   0  0  0  1  0  0  0  0  0  0  0  0
   -4.9037    1.0462   -1.6193 H   0  0  0  1  0  0  0  0  0  0  0  0
   -5.4735    1.2926    0.0138 H   0  0  0  1  0  0  0  0  0  0  0  0
   -5.1402   -0.3238   -0.5612 H   0  0  0  1  0  0  0  0  0  0  0  0
    1.8343    3.8044   -1.8793 H   0  0  0  1  0  0  0  0  0  0  0  0
    1.7965    2.2724   -2.7185 H   0  0  0  1  0  0  0  0  0  0  0  0
    2.9861    2.5561   -1.4701 H   0  0  0  1  0  0  0  0  0  0  0  0
   -4.1397    3.3020    1.6037 F   0  0  0  1  0  0  0  0  0  0  0  0
   -3.3318    4.3116    1.2268 C   0  0  0  1  0  0  0  0  0  0  0  0
   -1.9715    4.0913    1.0765 C   0  0  0  1  0  0  0  0  0  0  0  0
   -1.1417    5.1287    0.6949 C   0  0  0  1  0  0  0  0  0  0  0  0
   -1.6704    6.3879    0.4572 C   0  0  0  1  0  0  0  0  0  0  0  0
   -3.0268    6.6072    0.6071 C   0  0  0  1  0  0  0  0  0  0  0  0
   -3.8591    5.5669    0.9899 C   0  0  0  1  0  0  0  0  0  0  0  0
   -1.3962    2.7179    1.3298 C   0  0  0  1  0  0  0  0  0  0  0  0
   -0.1205    4.9645    0.5860 H   0  0  0  1  0  0  0  0  0  0  0  0
   -1.0466    7.1674    0.1661 H   0  0  0  1  0  0  0  0  0  0  0  0
   -3.4230    7.5528    0.4327 H   0  0  0  1  0  0  0  0  0  0  0  0
   -4.8803    5.7310    1.0988 H   0  0  0  1  0  0  0  0  0  0  0  0
   -0.4133    2.8195    1.7404 H   0  0  0  1  0  0  0  0  0  0  0  0
   -2.0218    2.1982    2.0250 H   0  0  0  1  0  0  0  0  0  0  0  0
  1  4  1  0  0  0  0
  2  4  1  0  0  0  0
  2  5  2  0  0  0  0
  2  6  1  0  0  0  0
  3  4  1  0  0  0  0
  3  7  1  0  0  0  0
  3  8  1  0  0  0  0
  4 26  1  0  0  0  0
  6  9  1  0  0  0  0
  6 12  1  0  0  0  0
  8 10  1  0  0  0  0
  8 11  2  0  0  0  0
  9 13  1  0  0  0  0
  9 14  1  0  0  0  0
  9 15  1  0  0  0  0
 10 16  1  0  0  0  0
 10 17  1  0  0  0  0
 10 18  1  0  0  0  0
 19 20  1  0  0  0  0
 20 21  4  0  0  0  0
 20 25  4  0  0  0  0
 21 22  4  0  0  0  0
 21 26  1  0  0  0  0
 22 23  4  0  0  0  0
 22 27  1  0  0  0  0
 23 24  4  0  0  0  0
 23 28  1  0  0  0  0
 24 25  4  0  0  0  0
 24 29  1  0  0  0  0
 25 30  1  0  0  0  0
 26 31  1  0  0  0  0
 26 32  1  0  0  0  0
M  END
> <BCLConfClusterSize>
1

> <ConfClashScore>
0 

> <ConfOneFourInteractionScore>
-0.987258 

> <ConfScore>
-0.104445 

> <ConfScorePBest>
0.00558386 

> <ConfTolerance>
0.226875 

> <RosettaParamsInstructions>
M  ROOT 3
M  POLY_N_BB 3
M  POLY_CA_BB 4
M  POLY_C_BB 2
M  POLY_O_BB 5
M  POLY_IGNORE 9 10 11 12 13 14 15 16 17 18 
M  POLY_UPPER 6
M  POLY_LOWER 8
M  POLY_CHG 0
M  POLY_PROPERTIES ALPHA_AA L_AA PROTEIN AROMATIC POLYMER 
M  END

$$$$



 32 32  0  0  0  0  0  0  0  0999 V2000
   -2.7687    1.9458    2.7618 H   0  0  0  1  0  0  0  0  0  0  0  0
   -0.9403    0.9120    3.0216 C   0  0  0  1  0  0  0  0  0  0  0  0
   -1.4452    3.1866    3.7544 N   0  0  0  1  0  0  0  0  0  0  0  0
   -1.7262    2.1854    2.7363 C   0  0  0  1  0  0  0  0  0  0  0  0
    0.2620    0.9481    3.2798 O   0  0  0  1  0  0  0  0  0  0  0  0
   -1.6428   -0.2300    2.9715 N   0  0  0  1  0  0  0  0  0  0  0  0
   -0.6022    3.6843    3.7083 H   0  0  0  1  0  0  0  0  0  0  0  0
   -2.2951    3.4503    4.7481 C   0  0  0  1  0  0  0  0  0  0  0  0
   -1.0802   -1.5621    3.1353 C   0  0  0  1  0  0  0  0  0  0  0  0
   -1.8246    4.4739    5.7630 C   0  0  0  1  0  0  0  0  0  0  0  0
   -3.3926    2.9087    4.8509 O   0  0  0  1  0  0  0  0  0  0  0  0
   -2.6075   -0.1620    2.8127 H   0  0  0  1  0  0  0  0  0  0  0  0
   -0.3683   -1.7472    2.3582 H   0  0  0  1  0  0  0  0  0  0  0  0
   -1.8635   -2.2890    3.0815 H   0  0  0  1  0  0  0  0  0  0  0  0
   -0.5950   -1.6296    4.0866 H   0  0  0  1  0  0  0  0  0  0  0  0
   -1.5039    5.3593    5.2550 H   0  0  0  1  0  0  0  0  0  0  0  0
   -1.0084    4.0699    6.3247 H   0  0  0  1  0  0  0  0  0  0  0  0
   -2.6295    4.7149    6.4255 H   0  0  0  1  0  0  0  0  0  0  0  0
   -4.1391    3.2984    1.5955 F   0  0  0  1  0  0  0  0  0  0  0  0
   -3.3302    4.3096    1.2252 C   0  0  0  1  0  0  0  0  0  0  0  0
   -1.9734    4.0909    1.0783 C   0  0  0  1  0  0  0  0  0  0  0  0
   -1.1418    5.1304    0.6920 C   0  0  0  1  0  0  0  0  0  0  0  0
   -1.6684    6.3868    0.4589 C   0  0  0  1  0  0  0  0  0  0  0  0
   -3.0291    6.6060    0.6062 C   0  0  0  1  0  0  0  0  0  0  0  0
   -3.8586    5.5697    0.9914 C   0  0  0  1  0  0  0  0  0  0  0  0
   -1.3969    2.7193    1.3387 C   0  0  0  1  0  0  0  0  0  0  0  0
   -0.1214    4.9649    0.5776 H   0  0  0  1  0  0  0  0  0  0  0  0
   -1.0437    7.1676    0.1729 H   0  0  0  1  0  0  0  0  0  0  0  0
   -3.4260    7.5505    0.4269 H   0  0  0  1  0  0  0  0  0  0  0  0
   -4.8789    5.7352    1.1058 H   0  0  0  1  0  0  0  0  0  0  0  0
   -1.7927    2.0401    0.6127 H   0  0  0  1  0  0  0  0  0  0  0  0
   -0.3332    2.7718    1.2361 H   0  0  0  1  0  0  0  0  0  0  0  0
  1  4  1  0  0  0  0
  2  4  1  0  0  0  0
  2  5  2  0  0  0  0
  2  6  1  0  0  0  0
  3  4  1  0  0  0  0
  3  7  1  0  0  0  0
  3  8  1  0  0  0  0
  4 26  1  0  0  0  0
  6  9  1  0  0  0  0
  6 12  1  0  0  0  0
  8 10  1  0  0  0  0
  8 11  2  0  0  0  0
  9 13  1  0  0  0  0
  9 14  1  0  0  0  0
  9 15  1  0  0  0  0
 10 16  1  0  0  0  0
 10 17  1  0  0  0  0
 10 18  1  0  0  0  0
 19 20  1  0  0  0  0
 20 21  4  0  0  0  0
 20 25  4  0  0  0  0
 21 22  4  0  0  0  0
 21 26  1  0  0  0  0
 22 23  4  0  0  0  0
 22 27  1  0  0  0  0
 23 24  4  0  0  0  0
 23 28  1  0  0  0  0
 24 25  4  0  0  0  0
 24 29  1  0  0  0  0
 25 30  1  0  0  0  0
 26 31  1  0  0  0  0
 26 32  1  0  0  0  0
M  END
> <BCLConfClusterSize>
1

> <ConfClashScore>
0 

> <ConfOneFourInteractionScore>
-0.985807 

> <ConfScore>
-0.0995505 

> <ConfScorePBest>
0.00555537 

> <ConfTolerance>
0.387404 

> <RosettaParamsInstructions>
M  ROOT 3
M  POLY_N_BB 3
M  POLY_CA_BB 4
M  POLY_C_BB 2
M  POLY_O_BB 5
M  POLY_IGNORE 9 10 11 12 13 14 15 16 17 18 
M  POLY_UPPER 6
M  POLY_LOWER 8
M  POLY_CHG 0
M  POLY_PROPERTIES ALPHA_AA L_AA PROTEIN AROMATIC POLYMER 
M  END

$$$$



 32 32  0  0  0  0  0  0  0  0999 V2000
   -1.1940    0.8079    0.4322 H   0  0  0  1  0  0  0  0  0  0  0  0
   -3.1874    1.4438    0.1706 C   0  0  0  1  0  0  0  0  0  0  0  0
   -1.1787    2.2425   -1.0533 N   0  0  0  1  0  0  0  0  0  0  0  0
   -1.6976    1.7239    0.2036 C   0  0  0  1  0  0  0  0  0  0  0  0
   -3.8666    2.0408   -0.6605 O   0  0  0  1  0  0  0  0  0  0  0  0
   -3.6816    0.5672    1.0422 N   0  0  0  1  0  0  0  0  0  0  0  0
   -1.7958    2.6842   -1.6735 H   0  0  0  1  0  0  0  0  0  0  0  0
    0.1096    2.1374   -1.3912 C   0  0  0  1  0  0  0  0  0  0  0  0
   -5.0816    0.1801    1.1316 C   0  0  0  1  0  0  0  0  0  0  0  0
    0.4915    2.7424   -2.7281 C   0  0  0  1  0  0  0  0  0  0  0  0
    0.9470    1.5883   -0.6763 O   0  0  0  1  0  0  0  0  0  0  0  0
   -3.0555    0.1512    1.6710 H   0  0  0  1  0  0  0  0  0  0  0  0
   -5.6987    1.0506    1.0526 H   0  0  0  1  0  0  0  0  0  0  0  0
   -5.2597   -0.2988    2.0718 H   0  0  0  1  0  0  0  0  0  0  0  0
   -5.3159   -0.4962    0.3362 H   0  0  0  1  0  0  0  0  0  0  0  0
   -0.0918    2.2918   -3.5037 H   0  0  0  1  0  0  0  0  0  0  0  0
    1.5302    2.5664   -2.9153 H   0  0  0  1  0  0  0  0  0  0  0  0
    0.3056    3.7960   -2.7086 H   0  0  0  1  0  0  0  0  0  0  0  0
   -4.1397    3.3020    1.6037 F   0  0  0  1  0  0  0  0  0  0  0  0
   -3.3318    4.3116    1.2268 C   0  0  0  1  0  0  0  0  0  0  0  0
   -1.9715    4.0913    1.0765 C   0  0  0  1  0  0  0  0  0  0  0  0
   -1.1417    5.1287    0.6949 C   0  0  0  1  0  0  0  0  0  0  0  0
   -1.6704    6.3879    0.4572 C   0  0  0  1  0  0  0  0  0  0  0  0
   -3.0268    6.6072    0.6071 C   0  0  0  1  0  0  0  0  0  0  0  0
   -3.8591    5.5669    0.9899 C   0  0  0  1  0  0  0  0  0  0  0  0
   -1.3962    2.7179    1.3298 C   0  0  0  1  0  0  0  0  0  0  0  0
   -0.1205    4.9645    0.5860 H   0  0  0  1  0  0  0  0  0  0  0  0
   -1.0466    7.1674    0.1661 H   0  0  0  1  0  0  0  0  0  0  0  0
   -3.4230    7.5528    0.4327 H   0  0  0  1  0  0  0  0  0  0  0  0
   -4.8803    5.7310    1.0988 H   0  0  0  1  0  0  0  0  0  0  0  0
   -0.3346    2.8066    1.4306 H   0  0  0  1  0  0  0  0  0  0  0  0
   -1.8108    2.3375    2.2398 H   0  0  0  1  0  0  0  0  0  0  0  0
  1  4  1  0  0  0  0
  2  4  1  0  0  0  0
  2  5  2  0  0  0  0
  2  6  1  0  0  0  0
  3  4  1  0  0  0  0
  3  7  1  0  0  0  0
  3  8  1  0  0  0  0
  4 26  1  0  0  0  0
  6  9  1  0  0  0  0
  6 12  1  0  0  0  0
  8 10  1  0  0  0  0
  8 11  2  0  0  0  0
  9 13  1  0  0  0  0
  9 14  1  0  0  0  0
  9 15  1  0  0  0  0
 10 16  1  0  0  0  0
 10 17  1  0  0  0  0
 10 18  1  0  0  0  0
 19 20  1  0  0  0  0
 20 21  4  0  0  0  0
 20 25  4  0  0  0  0
 21 22  4  0  0  0  0
 21 26  1  0  0  0  0
 22 23  4  0  0  0  0
 22 27  1  0  0  0  0
 23 24  4  0  0  0  0
 23 28  1  0  0  0  0
 24 25  4  0  0  0  0
 24 29  1  0  0  0  0
 25 30  1  0  0  0  0
 26 31  1  0  0  0  0
 26 32  1  0  0  0  0
M  END
> <BCLConfClusterSize>
1

> <ConfClashScore>
0 

> <ConfOneFourInteractionScore>
-0.980789 

> <ConfScore>
-0.0985298 

> <ConfScorePBest>
0.00552689 

> <ConfTolerance>
0.344261 

> <RosettaParamsInstructions>
M  ROOT 3
M  POLY_N_BB 3
M  POLY_CA_BB 4
M  POLY_C_BB 2
M  POLY_O_BB 5
M  POLY_IGNORE 9 10 11 12 13 14 15 16 17 18 
M  POLY_UPPER 6
M  POLY_LOWER 8
M  POLY_CHG 0
M  POLY_PROPERTIES ALPHA_AA L_AA PROTEIN AROMATIC POLYMER 
M  END

$$$$



 32 32  0  0  0  0  0  0  0  0999 V2000
   -1.4483    2.9770    3.4377 H   0  0  0  1  0  0  0  0  0  0  0  0
   -0.4921    1.1365    3.0467 C   0  0  0  1  0  0  0  0  0  0  0  0
    0.4770    3.3571    2.7883 N   0  0  0  1  0  0  0  0  0  0  0  0
   -0.7588    2.5920    2.7157 C   0  0  0  1  0  0  0  0  0  0  0  0
    0.5963    0.6163    2.8065 O   0  0  0  1  0  0  0  0  0  0  0  0
   -1.5116    0.4707    3.6103 N   0  0  0  1  0  0  0  0  0  0  0  0
    0.7750    3.8506    1.9958 H   0  0  0  1  0  0  0  0  0  0  0  0
    1.2194    3.4102    3.8979 C   0  0  0  1  0  0  0  0  0  0  0  0
   -1.4473   -0.9556    3.8923 C   0  0  0  1  0  0  0  0  0  0  0  0
    2.6139    3.9817    3.7307 C   0  0  0  1  0  0  0  0  0  0  0  0
    0.8152    3.0254    4.9920 O   0  0  0  1  0  0  0  0  0  0  0  0
   -2.3279    0.9619    3.8400 H   0  0  0  1  0  0  0  0  0  0  0  0
   -1.3533   -1.4973    2.9743 H   0  0  0  1  0  0  0  0  0  0  0  0
   -2.3410   -1.2600    4.3958 H   0  0  0  1  0  0  0  0  0  0  0  0
   -0.6004   -1.1581    4.5141 H   0  0  0  1  0  0  0  0  0  0  0  0
    2.8797    4.5369    4.6059 H   0  0  0  1  0  0  0  0  0  0  0  0
    2.6342    4.6285    2.8786 H   0  0  0  1  0  0  0  0  0  0  0  0
    3.3118    3.1830    3.5896 H   0  0  0  1  0  0  0  0  0  0  0  0
   -4.1391    3.2983    1.5955 F   0  0  0  1  0  0  0  0  0  0  0  0
   -3.3303    4.3096    1.2252 C   0  0  0  1  0  0  0  0  0  0  0  0
   -1.9735    4.0910    1.0783 C   0  0  0  1  0  0  0  0  0  0  0  0
   -1.1416    5.1304    0.6920 C   0  0  0  1  0  0  0  0  0  0  0  0
   -1.6684    6.3867    0.4589 C   0  0  0  1  0  0  0  0  0  0  0  0
   -3.0292    6.6062    0.6062 C   0  0  0  1  0  0  0  0  0  0  0  0
   -3.8584    5.5697    0.9914 C   0  0  0  1  0  0  0  0  0  0  0  0
   -1.3971    2.7194    1.3387 C   0  0  0  1  0  0  0  0  0  0  0  0
   -0.1213    4.9648    0.5776 H   0  0  0  1  0  0  0  0  0  0  0  0
   -1.0438    7.1676    0.1730 H   0  0  0  1  0  0  0  0  0  0  0  0
   -3.4261    7.5506    0.4269 H   0  0  0  1  0  0  0  0  0  0  0  0
   -4.8788    5.7352    1.1058 H   0  0  0  1  0  0  0  0  0  0  0  0
   -2.1840    1.9987    1.2601 H   0  0  0  1  0  0  0  0  0  0  0  0
   -0.6520    2.5168    0.5979 H   0  0  0  1  0  0  0  0  0  0  0  0
  1  4  1  0  0  0  0
  2  4  1  0  0  0  0
  2  5  2  0  0  0  0
  2  6  1  0  0  0  0
  3  4  1  0  0  0  0
  3  7  1  0  0  0  0
  3  8  1  0  0  0  0
  4 26  1  0  0  0  0
  6  9  1  0  0  0  0
  6 12  1  0  0  0  0
  8 10  1  0  0  0  0
  8 11  2  0  0  0  0
  9 13  1  0  0  0  0
  9 14  1  0  0  0  0
  9 15  1  0  0  0  0
 10 16  1  0  0  0  0
 10 17  1  0  0  0  0
 10 18  1  0  0  0  0
 19 20  1  0  0  0  0
 20 21  4  0  0  0  0
 20 25  4  0  0  0  0
 21 22  4  0  0  0  0
 21 26  1  0  0  0  0
 22 23  4  0  0  0  0
 22 27  1  0  0  0  0
 23 24  4  0  0  0  0
 23 28  1  0  0  0  0
 24 25  4  0  0  0  0
 24 29  1  0  0  0  0
 25 30  1  0  0  0  0
 26 31  1  0  0  0  0
 26 32  1  0  0  0  0
M  END
> <BCLConfClusterSize>
1

> <ConfClashScore>
0 

> <ConfOneFourInteractionScore>
-0.981931 

> <ConfScore>
-0.0916027 

> <ConfScorePBest>
0.00549841 

> <ConfTolerance>
0.33458 

> <RosettaParamsInstructions>
M  ROOT 3
M  POLY_N_BB 3
M  POLY_CA_BB 4
M  POLY_C_BB 2
M  POLY_O_BB 5
M  POLY_IGNORE 9 10 11 12 13 14 15 16 17 18 
M  POLY_UPPER 6
M  POLY_LOWER 8
M  POLY_CHG 0
M  POLY_PROPERTIES ALPHA_AA L_AA PROTEIN AROMATIC POLYMER 
M  END

$$$$



 32 32  0  0  0  0  0  0  0  0999 V2000
   -1.6076    2.1710   -0.6840 H   0  0  0  1  0  0  0  0  0  0  0  0
   -0.8397    0.4843    0.3210 C   0  0  0  1  0  0  0  0  0  0  0  0
   -3.1413    1.2170    0.2941 N   0  0  0  1  0  0  0  0  0  0  0  0
   -1.7687    1.6996    0.2629 C   0  0  0  1  0  0  0  0  0  0  0  0
    0.2692    0.4872   -0.1817 O   0  0  0  1  0  0  0  0  0  0  0  0
   -1.2574   -0.6265    0.9470 N   0  0  0  1  0  0  0  0  0  0  0  0
   -3.7116    1.4618    1.0526 H   0  0  0  1  0  0  0  0  0  0  0  0
   -3.6510    0.4519   -0.6753 C   0  0  0  1  0  0  0  0  0  0  0  0
   -0.4415   -1.8312    0.9199 C   0  0  0  1  0  0  0  0  0  0  0  0
   -5.1609    0.2449   -0.6309 C   0  0  0  1  0  0  0  0  0  0  0  0
   -2.9631   -0.0603   -1.5544 O   0  0  0  1  0  0  0  0  0  0  0  0
   -2.1137   -0.6265    1.4235 H   0  0  0  1  0  0  0  0  0  0  0  0
    0.4056   -1.7035    1.5610 H   0  0  0  1  0  0  0  0  0  0  0  0
   -0.1073   -2.0129   -0.0802 H   0  0  0  1  0  0  0  0  0  0  0  0
   -1.0228   -2.6631    1.2589 H   0  0  0  1  0  0  0  0  0  0  0  0
   -5.4884    0.2213    0.3875 H   0  0  0  1  0  0  0  0  0  0  0  0
   -5.4078   -0.6814   -1.1062 H   0  0  0  1  0  0  0  0  0  0  0  0
   -5.6462    1.0495   -1.1428 H   0  0  0  1  0  0  0  0  0  0  0  0
   -4.1390    3.2984    1.5955 F   0  0  0  1  0  0  0  0  0  0  0  0
   -3.3302    4.3097    1.2252 C   0  0  0  1  0  0  0  0  0  0  0  0
   -1.9734    4.0909    1.0783 C   0  0  0  1  0  0  0  0  0  0  0  0
   -1.1418    5.1304    0.6920 C   0  0  0  1  0  0  0  0  0  0  0  0
   -1.6684    6.3868    0.4589 C   0  0  0  1  0  0  0  0  0  0  0  0
   -3.0292    6.6061    0.6062 C   0  0  0  1  0  0  0  0  0  0  0  0
   -3.8585    5.5697    0.9914 C   0  0  0  1  0  0  0  0  0  0  0  0
   -1.3970    2.7192    1.3387 C   0  0  0  1  0  0  0  0  0  0  0  0
   -0.1214    4.9648    0.5776 H   0  0  0  1  0  0  0  0  0  0  0  0
   -1.0437    7.1676    0.1729 H   0  0  0  1  0  0  0  0  0  0  0  0
   -3.4261    7.5505    0.4269 H   0  0  0  1  0  0  0  0  0  0  0  0
   -4.8789    5.7352    1.1058 H   0  0  0  1  0  0  0  0  0  0  0  0
   -0.3308    2.7997    1.3778 H   0  0  0  1  0  0  0  0  0  0  0  0
   -1.7635    2.3691    2.2810 H   0  0  0  1  0  0  0  0  0  0  0  0
  1  4  1  0  0  0  0
  2  4  1  0  0  0  0
  2  5  2  0  0  0  0
  2  6  1  0  0  0  0
  3  4  1  0  0  0  0
  3  7  1  0  0  0  0
  3  8  1  0  0  0  0
  4 26  1  0  0  0  0
  6  9  1  0  0  0  0
  6 12  1  0  0  0  0
  8 10  1  0  0  0  0
  8 11  2  0  0  0  0
  9 13  1  0  0  0  0
  9 14  1  0  0  0  0
  9 15  1  0  0  0  0
 10 16  1  0  0  0  0
 10 17  1  0  0  0  0
 10 18  1  0  0  0  0
 19 20  1  0  0  0  0
 20 21  4  0  0  0  0
 20 25  4  0  0  0  0
 21 22  4  0  0  0  0
 21 26  1  0  0  0  0
 22 23  4  0  0  0  0
 22 27  1  0  0  0  0
 23 24  4  0  0  0  0
 23 28  1  0  0  0  0
 24 25  4  0  0  0  0
 24 29  1  0  0  0  0
 25 30  1  0  0  0  0
 26 31  1  0  0  0  0
 26 32  1  0  0  0  0
M  END
> <BCLConfClusterSize>
1

> <ConfClashScore>
0 

> <ConfOneFourInteractionScore>
-0.956443 

> <ConfScore>
-0.0839134 

> <ConfScorePBest>
0.00546993 

> <ConfTolerance>
0.278595 

> <RosettaParamsInstructions>
M  ROOT 3
M  POLY_N_BB 3
M  POLY_CA_BB 4
M  POLY_C_BB 2
M  POLY_O_BB 5
M  POLY_IGNORE 9 10 11 12 13 14 15 16 17 18 
M  POLY_UPPER 6
M  POLY_LOWER 8
M  POLY_CHG 0
M  POLY_PROPERTIES ALPHA_AA L_AA PROTEIN AROMATIC POLYMER 
M  END

$$$$



 32 32  0  0  0  0  0  0  0  0999 V2000
   -0.5294    1.1372    0.2549 H   0  0  0  1  0  0  0  0  0  0  0  0
   -2.3563    1.4584   -0.7029 C   0  0  0  1  0  0  0  0  0  0  0  0
   -0.3158    2.8358   -0.8913 N   0  0  0  1  0  0  0  0  0  0  0  0
   -1.1276    1.9897    0.0092 C   0  0  0  1  0  0  0  0  0  0  0  0
   -2.8687    2.0733   -1.6372 O   0  0  0  1  0  0  0  0  0  0  0  0
   -2.8347    0.2897   -0.2473 N   0  0  0  1  0  0  0  0  0  0  0  0
   -0.7731    3.4083   -1.5420 H   0  0  0  1  0  0  0  0  0  0  0  0
    1.0252    2.8469   -0.8486 C   0  0  0  1  0  0  0  0  0  0  0  0
   -4.0984   -0.1906   -0.7859 C   0  0  0  1  0  0  0  0  0  0  0  0
    1.7111    3.6841   -1.9106 C   0  0  0  1  0  0  0  0  0  0  0  0
    1.6739    2.2241   -0.0090 O   0  0  0  1  0  0  0  0  0  0  0  0
   -2.3468   -0.2252    0.4289 H   0  0  0  1  0  0  0  0  0  0  0  0
   -4.8791    0.4951   -0.5307 H   0  0  0  1  0  0  0  0  0  0  0  0
   -4.3195   -1.1524   -0.3724 H   0  0  0  1  0  0  0  0  0  0  0  0
   -4.0257   -0.2677   -1.8507 H   0  0  0  1  0  0  0  0  0  0  0  0
    1.4122    4.7064   -1.8078 H   0  0  0  1  0  0  0  0  0  0  0  0
    1.4331    3.3273   -2.8803 H   0  0  0  1  0  0  0  0  0  0  0  0
    2.7720    3.6095   -1.7932 H   0  0  0  1  0  0  0  0  0  0  0  0
   -4.1398    3.3019    1.6037 F   0  0  0  1  0  0  0  0  0  0  0  0
   -3.3319    4.3114    1.2268 C   0  0  0  1  0  0  0  0  0  0  0  0
   -1.9716    4.0914    1.0765 C   0  0  0  1  0  0  0  0  0  0  0  0
   -1.1416    5.1287    0.6948 C   0  0  0  1  0  0  0  0  0  0  0  0
   -1.6705    6.3878    0.4572 C   0  0  0  1  0  0  0  0  0  0  0  0
   -3.0268    6.6073    0.6071 C   0  0  0  1  0  0  0  0  0  0  0  0
   -3.8590    5.5669    0.9899 C   0  0  0  1  0  0  0  0  0  0  0  0
   -1.3962    2.7180    1.3297 C   0  0  0  1  0  0  0  0  0  0  0  0
   -0.1204    4.9645    0.5860 H   0  0  0  1  0  0  0  0  0  0  0  0
   -1.0467    7.1674    0.1662 H   0  0  0  1  0  0  0  0  0  0  0  0
   -3.4230    7.5529    0.4327 H   0  0  0  1  0  0  0  0  0  0  0  0
   -4.8802    5.7310    1.0987 H   0  0  0  1  0  0  0  0  0  0  0  0
   -0.4774    2.8166    1.8692 H   0  0  0  1  0  0  0  0  0  0  0  0
   -2.0915    2.1479    1.9097 H   0  0  0  1  0  0  0  0  0  0  0  0
  1  4  1  0  0  0  0
  2  4  1  0  0  0  0
  2  5  2  0  0  0  0
  2  6  1  0  0  0  0
  3  4  1  0  0  0  0
  3  7  1  0  0  0  0
  3  8  1  0  0  0  0
  4 26  1  0  0  0  0
  6  9  1  0  0  0  0
  6 12  1  0  0  0  0
  8 10  1  0  0  0  0
  8 11  2  0  0  0  0
  9 13  1  0  0  0  0
  9 14  1  0  0  0  0
  9 15  1  0  0  0  0
 10 16  1  0  0  0  0
 10 17  1  0  0  0  0
 10 18  1  0  0  0  0
 19 20  1  0  0  0  0
 20 21  4  0  0  0  0
 20 25  4  0  0  0  0
 21 22  4  0  0  0  0
 21 26  1  0  0  0  0
 22 23  4  0  0  0  0
 22 27  1  0  0  0  0
 23 24  4  0  0  0  0
 23 28  1  0  0  0  0
 24 25  4  0  0  0  0
 24 29  1  0  0  0  0
 25 30  1  0  0  0  0
 26 31  1  0  0  0  0
 26 32  1  0  0  0  0
M  END
> <BCLConfClusterSize>
1

> <ConfClashScore>
0 

> <ConfOneFourInteractionScore>
-0.980789 

> <ConfScore>
-0.0835637 

> <ConfScorePBest>
0.00544145 

> <ConfTolerance>
0.470178 

> <RosettaParamsInstructions>
M  ROOT 3
M  POLY_N_BB 3
M  POLY_CA_BB 4
M  POLY_C_BB 2
M  POLY_O_BB 5
M  POLY_IGNORE 9 10 11 12 13 14 15 16 17 18 
M  POLY_UPPER 6
M  POLY_LOWER 8
M  POLY_CHG 0
M  POLY_PROPERTIES ALPHA_AA L_AA PROTEIN AROMATIC POLYMER 
M  END

$$$$



 32 32  0  0  0  0  0  0  0  0999 V2000
   -0.3016    1.6258    2.7393 H   0  0  0  1  0  0  0  0  0  0  0  0
    0.3489    3.5963    2.9452 C   0  0  0  1  0  0  0  0  0  0  0  0
   -1.7506    2.5995    3.8057 N   0  0  0  1  0  0  0  0  0  0  0  0
   -0.7671    2.5891    2.7193 C   0  0  0  1  0  0  0  0  0  0  0  0
    0.1567    4.6121    3.6122 O   0  0  0  1  0  0  0  0  0  0  0  0
    1.5469    3.3440    2.3963 N   0  0  0  1  0  0  0  0  0  0  0  0
   -1.9122    3.4513    4.2624 H   0  0  0  1  0  0  0  0  0  0  0  0
   -2.4593    1.5108    4.2298 C   0  0  0  1  0  0  0  0  0  0  0  0
    2.6708    4.2686    2.3877 C   0  0  0  1  0  0  0  0  0  0  0  0
   -3.3211    1.7857    5.4468 C   0  0  0  1  0  0  0  0  0  0  0  0
   -2.3877    0.4343    3.6664 O   0  0  0  1  0  0  0  0  0  0  0  0
    1.6748    2.4715    1.9689 H   0  0  0  1  0  0  0  0  0  0  0  0
    2.5826    4.9457    3.2115 H   0  0  0  1  0  0  0  0  0  0  0  0
    2.6713    4.8206    1.4711 H   0  0  0  1  0  0  0  0  0  0  0  0
    3.5849    3.7192    2.4743 H   0  0  0  1  0  0  0  0  0  0  0  0
   -3.3616    2.8399    5.6250 H   0  0  0  1  0  0  0  0  0  0  0  0
   -2.8998    1.2959    6.2998 H   0  0  0  1  0  0  0  0  0  0  0  0
   -4.3100    1.4151    5.2743 H   0  0  0  1  0  0  0  0  0  0  0  0
   -4.1391    3.2984    1.5955 F   0  0  0  1  0  0  0  0  0  0  0  0
   -3.3302    4.3096    1.2252 C   0  0  0  1  0  0  0  0  0  0  0  0
   -1.9734    4.0909    1.0783 C   0  0  0  1  0  0  0  0  0  0  0  0
   -1.1418    5.1304    0.6920 C   0  0  0  1  0  0  0  0  0  0  0  0
   -1.6684    6.3868    0.4589 C   0  0  0  1  0  0  0  0  0  0  0  0
   -3.0291    6.6060    0.6062 C   0  0  0  1  0  0  0  0  0  0  0  0
   -3.8586    5.5697    0.9914 C   0  0  0  1  0  0  0  0  0  0  0  0
   -1.3969    2.7193    1.3387 C   0  0  0  1  0  0  0  0  0  0  0  0
   -0.1214    4.9649    0.5776 H   0  0  0  1  0  0  0  0  0  0  0  0
   -1.0437    7.1676    0.1729 H   0  0  0  1  0  0  0  0  0  0  0  0
   -3.4260    7.5505    0.4269 H   0  0  0  1  0  0  0  0  0  0  0  0
   -4.8789    5.7352    1.1058 H   0  0  0  1  0  0  0  0  0  0  0  0
   -2.1825    1.9978    1.2533 H   0  0  0  1  0  0  0  0  0  0  0  0
   -0.6470    2.5196    0.6021 H   0  0  0  1  0  0  0  0  0  0  0  0
  1  4  1  0  0  0  0
  2  4  1  0  0  0  0
  2  5  2  0  0  0  0
  2  6  1  0  0  0  0
  3  4  1  0  0  0  0
  3  7  1  0  0  0  0
  3  8  1  0  0  0  0
  4 26  1  0  0  0  0
  6  9  1  0  0  0  0
  6 12  1  0  0  0  0
  8 10  1  0  0  0  0
  8 11  2  0  0  0  0
  9 13  1  0  0  0  0
  9 14  1  0  0  0  0
  9 15  1  0  0  0  0
 10 16  1  0  0  0  0
 10 17  1  0  0  0  0
 10 18  1  0  0  0  0
 19 20  1  0  0  0  0
 20 21  4  0  0  0  0
 20 25  4  0  0  0  0
 21 22  4  0  0  0  0
 21 26  1  0  0  0  0
 22 23  4  0  0  0  0
 22 27  1  0  0  0  0
 23 24  4  0  0  0  0
 23 28  1  0  0  0  0
 24 25  4  0  0  0  0
 24 29  1  0  0  0  0
 25 30  1  0  0  0  0
 26 31  1  0  0  0  0
 26 32  1  0  0  0  0
M  END
> <BCLConfClusterSize>
1

> <ConfClashScore>
0 

> <ConfOneFourInteractionScore>
-0.987258 

> <ConfScore>
-0.0814968 

> <ConfScorePBest>
0.00541297 

> <ConfTolerance>
0.254251 

> <RosettaParamsInstructions>
M  ROOT 3
M  POLY_N_BB 3
M  POLY_CA_BB 4
M  POLY_C_BB 2
M  POLY_O_BB 5
M  POLY_IGNORE 9 10 11 12 13 14 15 16 17 18 
M  POLY_UPPER 6
M  POLY_LOWER 8
M  POLY_CHG 0
M  POLY_PROPERTIES ALPHA_AA L_AA PROTEIN AROMATIC POLYMER 
M  END

$$$$



 32 32  0  0  0  0  0  0  0  0999 V2000
   -2.4067    2.5195    3.1775 H   0  0  0  1  0  0  0  0  0  0  0  0
   -1.1511    0.8375    2.9563 C   0  0  0  1  0  0  0  0  0  0  0  0
   -0.4590    3.0928    3.5662 N   0  0  0  1  0  0  0  0  0  0  0  0
   -1.4255    2.3205    2.7998 C   0  0  0  1  0  0  0  0  0  0  0  0
   -0.0112    0.4034    2.9777 O   0  0  0  1  0  0  0  0  0  0  0  0
   -2.2339    0.0529    3.0675 N   0  0  0  1  0  0  0  0  0  0  0  0
    0.1169    3.7307    3.0953 H   0  0  0  1  0  0  0  0  0  0  0  0
   -0.3283    2.9610    4.9026 C   0  0  0  1  0  0  0  0  0  0  0  0
   -2.1354   -1.3916    3.2145 C   0  0  0  1  0  0  0  0  0  0  0  0
    0.6985    3.8207    5.6045 C   0  0  0  1  0  0  0  0  0  0  0  0
   -1.0228    2.1655    5.5337 O   0  0  0  1  0  0  0  0  0  0  0  0
   -3.1219    0.4670    3.0490 H   0  0  0  1  0  0  0  0  0  0  0  0
   -3.1149   -1.8065    3.3295 H   0  0  0  1  0  0  0  0  0  0  0  0
   -1.5468   -1.6227    4.0776 H   0  0  0  1  0  0  0  0  0  0  0  0
   -1.6720   -1.8076    2.3443 H   0  0  0  1  0  0  0  0  0  0  0  0
    1.5548    3.2272    5.8482 H   0  0  0  1  0  0  0  0  0  0  0  0
    0.2749    4.2206    6.5020 H   0  0  0  1  0  0  0  0  0  0  0  0
    0.9924    4.6227    4.9600 H   0  0  0  1  0  0  0  0  0  0  0  0
   -4.1397    3.3020    1.6037 F   0  0  0  1  0  0  0  0  0  0  0  0
   -3.3318    4.3115    1.2268 C   0  0  0  1  0  0  0  0  0  0  0  0
   -1.9715    4.0914    1.0765 C   0  0  0  1  0  0  0  0  0  0  0  0
   -1.1417    5.1287    0.6949 C   0  0  0  1  0  0  0  0  0  0  0  0
   -1.6704    6.3879    0.4572 C   0  0  0  1  0  0  0  0  0  0  0  0
   -3.0268    6.6072    0.6071 C   0  0  0  1  0  0  0  0  0  0  0  0
   -3.8592    5.5669    0.9899 C   0  0  0  1  0  0  0  0  0  0  0  0
   -1.3961    2.7179    1.3298 C   0  0  0  1  0  0  0  0  0  0  0  0
   -0.1206    4.9645    0.5860 H   0  0  0  1  0  0  0  0  0  0  0  0
   -1.0466    7.1674    0.1662 H   0  0  0  1  0  0  0  0  0  0  0  0
   -3.4229    7.5529    0.4327 H   0  0  0  1  0  0  0  0  0  0  0  0
   -4.8803    5.7311    1.0988 H   0  0  0  1  0  0  0  0  0  0  0  0
   -1.9639    2.0027    0.7722 H   0  0  0  1  0  0  0  0  0  0  0  0
   -0.3801    2.7072    0.9943 H   0  0  0  1  0  0  0  0  0  0  0  0
  1  4  1  0  0  0  0
  2  4  1  0  0  0  0
  2  5  2  0  0  0  0
  2  6  1  0  0  0  0
  3  4  1  0  0  0  0
  3  7  1  0  0  0  0
  3  8  1  0  0  0  0
  4 26  1  0  0  0  0
  6  9  1  0  0  0  0
  6 12  1  0  0  0  0
  8 10  1  0  0  0  0
  8 11  2  0  0  0  0
  9 13  1  0  0  0  0
  9 14  1  0  0  0  0
  9 15  1  0  0  0  0
 10 16  1  0  0  0  0
 10 17  1  0  0  0  0
 10 18  1  0  0  0  0
 19 20  1  0  0  0  0
 20 21  4  0  0  0  0
 20 25  4  0  0  0  0
 21 22  4  0  0  0  0
 21 26  1  0  0  0  0
 22 23  4  0  0  0  0
 22 27  1  0  0  0  0
 23 24  4  0  0  0  0
 23 28  1  0  0  0  0
 24 25  4  0  0  0  0
 24 29  1  0  0  0  0
 25 30  1  0  0  0  0
 26 31  1  0  0  0  0
 26 32  1  0  0  0  0
M  END
> <BCLConfClusterSize>
1

> <ConfClashScore>
0 

> <ConfOneFourInteractionScore>
-0.978127 

> <ConfScore>
-0.0745057 

> <ConfScorePBest>
0.00538449 

> <ConfTolerance>
0.409698 

> <RosettaParamsInstructions>
M  ROOT 3
M  POLY_N_BB 3
M  POLY_CA_BB 4
M  POLY_C_BB 2
M  POLY_O_BB 5
M  POLY_IGNORE 9 10 11 12 13 14 15 16 17 18 
M  POLY_UPPER 6
M  POLY_LOWER 8
M  POLY_CHG 0
M  POLY_PROPERTIES ALPHA_AA L_AA PROTEIN AROMATIC POLYMER 
M  END

$$$$



 32 32  0  0  0  0  0  0  0  0999 V2000
   -3.1385    1.5765    1.6840 H   0  0  0  1  0  0  0  0  0  0  0  0
   -1.4532    0.4625    2.3244 C   0  0  0  1  0  0  0  0  0  0  0  0
   -2.4714    2.3575    3.4882 N   0  0  0  1  0  0  0  0  0  0  0  0
   -2.2117    1.7679    2.1832 C   0  0  0  1  0  0  0  0  0  0  0  0
   -1.6938   -0.4978    1.5940 O   0  0  0  1  0  0  0  0  0  0  0  0
   -0.5221    0.4329    3.2821 N   0  0  0  1  0  0  0  0  0  0  0  0
   -2.1678    3.2729    3.6624 H   0  0  0  1  0  0  0  0  0  0  0  0
   -3.1120    1.6915    4.4609 C   0  0  0  1  0  0  0  0  0  0  0  0
    0.2949   -0.7444    3.5357 C   0  0  0  1  0  0  0  0  0  0  0  0
   -3.3018    2.4470    5.7618 C   0  0  0  1  0  0  0  0  0  0  0  0
   -3.5253    0.5430    4.3248 O   0  0  0  1  0  0  0  0  0  0  0  0
   -0.3845    1.2317    3.8329 H   0  0  0  1  0  0  0  0  0  0  0  0
    0.3175   -1.3590    2.6601 H   0  0  0  1  0  0  0  0  0  0  0  0
   -0.1225   -1.2992    4.3499 H   0  0  0  1  0  0  0  0  0  0  0  0
    1.2905   -0.4406    3.7837 H   0  0  0  1  0  0  0  0  0  0  0  0
   -3.8763    1.8515    6.4402 H   0  0  0  1  0  0  0  0  0  0  0  0
   -3.8169    3.3648    5.5690 H   0  0  0  1  0  0  0  0  0  0  0  0
   -2.3460    2.6579    6.1942 H   0  0  0  1  0  0  0  0  0  0  0  0
   -4.1390    3.2984    1.5955 F   0  0  0  1  0  0  0  0  0  0  0  0
   -3.3302    4.3097    1.2252 C   0  0  0  1  0  0  0  0  0  0  0  0
   -1.9734    4.0909    1.0783 C   0  0  0  1  0  0  0  0  0  0  0  0
   -1.1418    5.1304    0.6920 C   0  0  0  1  0  0  0  0  0  0  0  0
   -1.6684    6.3868    0.4589 C   0  0  0  1  0  0  0  0  0  0  0  0
   -3.0292    6.6061    0.6062 C   0  0  0  1  0  0  0  0  0  0  0  0
   -3.8585    5.5697    0.9914 C   0  0  0  1  0  0  0  0  0  0  0  0
   -1.3970    2.7192    1.3387 C   0  0  0  1  0  0  0  0  0  0  0  0
   -0.1214    4.9648    0.5776 H   0  0  0  1  0  0  0  0  0  0  0  0
   -1.0437    7.1676    0.1729 H   0  0  0  1  0  0  0  0  0  0  0  0
   -3.4261    7.5505    0.4269 H   0  0  0  1  0  0  0  0  0  0  0  0
   -4.8789    5.7352    1.1058 H   0  0  0  1  0  0  0  0  0  0  0  0
   -1.2418    2.2516    0.3889 H   0  0  0  1  0  0  0  0  0  0  0  0
   -0.4552    2.8554    1.8279 H   0  0  0  1  0  0  0  0  0  0  0  0
  1  4  1  0  0  0  0
  2  4  1  0  0  0  0
  2  5  2  0  0  0  0
  2  6  1  0  0  0  0
  3  4  1  0  0  0  0
  3  7  1  0  0  0  0
  3  8  1  0  0  0  0
  4 26  1  0  0  0  0
  6  9  1  0  0  0  0
  6 12  1  0  0  0  0
  8 10  1  0  0  0  0
  8 11  2  0  0  0  0
  9 13  1  0  0  0  0
  9 14  1  0  0  0  0
  9 15  1  0  0  0  0
 10 16  1  0  0  0  0
 10 17  1  0  0  0  0
 10 18  1  0  0  0  0
 19 20  1  0  0  0  0
 20 21  4  0  0  0  0
 20 25  4  0  0  0  0
 21 22  4  0  0  0  0
 21 26  1  0  0  0  0
 22 23  4  0  0  0  0
 22 27  1  0  0  0  0
 23 24  4  0  0  0  0
 23 28  1  0  0  0  0
 24 25  4  0  0  0  0
 24 29  1  0  0  0  0
 25 30  1  0  0  0  0
 26 31  1  0  0  0  0
 26 32  1  0  0  0  0
M  END
> <BCLConfClusterSize>
1

> <ConfClashScore>
0 

> <ConfOneFourInteractionScore>
-0.952877 

> <ConfScore>
-0.0743184 

> <ConfScorePBest>
0.00535601 

> <ConfTolerance>
0.594567 

> <RosettaParamsInstructions>
M  ROOT 3
M  POLY_N_BB 3
M  POLY_CA_BB 4
M  POLY_C_BB 2
M  POLY_O_BB 5
M  POLY_IGNORE 9 10 11 12 13 14 15 16 17 18 
M  POLY_UPPER 6
M  POLY_LOWER 8
M  POLY_CHG 0
M  POLY_PROPERTIES ALPHA_AA L_AA PROTEIN AROMATIC POLYMER 
M  END

$$$$



 32 32  0  0  0  0  0  0  0  0999 V2000
   -0.7975    1.3647    2.8590 H   0  0  0  1  0  0  0  0  0  0  0  0
   -0.1499    3.3295    3.3584 C   0  0  0  1  0  0  0  0  0  0  0  0
   -2.4066    2.4950    3.5535 N   0  0  0  1  0  0  0  0  0  0  0  0
   -1.1731    2.3644    2.7911 C   0  0  0  1  0  0  0  0  0  0  0  0
   -0.4945    4.3293    3.9829 O   0  0  0  1  0  0  0  0  0  0  0  0
    1.1296    3.0177    3.1329 N   0  0  0  1  0  0  0  0  0  0  0  0
   -2.5484    3.3035    4.0889 H   0  0  0  1  0  0  0  0  0  0  0  0
   -3.3500    1.5528    3.5487 C   0  0  0  1  0  0  0  0  0  0  0  0
    2.2504    3.8945    3.4375 C   0  0  0  1  0  0  0  0  0  0  0  0
   -4.6304    1.8105    4.3399 C   0  0  0  1  0  0  0  0  0  0  0  0
   -3.2515    0.4859    2.9441 O   0  0  0  1  0  0  0  0  0  0  0  0
    1.3257    2.1429    2.7373 H   0  0  0  1  0  0  0  0  0  0  0  0
    1.9028    4.7372    3.9977 H   0  0  0  1  0  0  0  0  0  0  0  0
    2.6967    4.2323    2.5255 H   0  0  0  1  0  0  0  0  0  0  0  0
    2.9760    3.3586    4.0131 H   0  0  0  1  0  0  0  0  0  0  0  0
   -4.4329    1.6979    5.3855 H   0  0  0  1  0  0  0  0  0  0  0  0
   -5.3811    1.1089    4.0414 H   0  0  0  1  0  0  0  0  0  0  0  0
   -4.9743    2.8052    4.1472 H   0  0  0  1  0  0  0  0  0  0  0  0
   -4.1397    3.3020    1.6037 F   0  0  0  1  0  0  0  0  0  0  0  0
   -3.3318    4.3115    1.2268 C   0  0  0  1  0  0  0  0  0  0  0  0
   -1.9715    4.0914    1.0765 C   0  0  0  1  0  0  0  0  0  0  0  0
   -1.1417    5.1287    0.6949 C   0  0  0  1  0  0  0  0  0  0  0  0
   -1.6704    6.3879    0.4572 C   0  0  0  1  0  0  0  0  0  0  0  0
   -3.0268    6.6072    0.6071 C   0  0  0  1  0  0  0  0  0  0  0  0
   -3.8592    5.5669    0.9899 C   0  0  0  1  0  0  0  0  0  0  0  0
   -1.3961    2.7179    1.3298 C   0  0  0  1  0  0  0  0  0  0  0  0
   -0.1206    4.9645    0.5860 H   0  0  0  1  0  0  0  0  0  0  0  0
   -1.0466    7.1674    0.1662 H   0  0  0  1  0  0  0  0  0  0  0  0
   -3.4229    7.5529    0.4327 H   0  0  0  1  0  0  0  0  0  0  0  0
   -4.8803    5.7311    1.0988 H   0  0  0  1  0  0  0  0  0  0  0  0
   -2.0686    1.9966    0.9145 H   0  0  0  1  0  0  0  0  0  0  0  0
   -0.4530    2.6575    0.8279 H   0  0  0  1  0  0  0  0  0  0  0  0
  1  4  1  0  0  0  0
  2  4  1  0  0  0  0
  2  5  2  0  0  0  0
  2  6  1  0  0  0  0
  3  4  1  0  0  0  0
  3  7  1  0  0  0  0
  3  8  1  0  0  0  0
  4 26  1  0  0  0  0
  6  9  1  0  0  0  0
  6 12  1  0  0  0  0
  8 10  1  0  0  0  0
  8 11  2  0  0  0  0
  9 13  1  0  0  0  0
  9 14  1  0  0  0  0
  9 15  1  0  0  0  0
 10 16  1  0  0  0  0
 10 17  1  0  0  0  0
 10 18  1  0  0  0  0
 19 20  1  0  0  0  0
 20 21  4  0  0  0  0
 20 25  4  0  0  0  0
 21 22  4  0  0  0  0
 21 26  1  0  0  0  0
 22 23  4  0  0  0  0
 22 27  1  0  0  0  0
 23 24  4  0  0  0  0
 23 28  1  0  0  0  0
 24 25  4  0  0  0  0
 24 29  1  0  0  0  0
 25 30  1  0  0  0  0
 26 31  1  0  0  0  0
 26 32  1  0  0  0  0
M  END
> <BCLConfClusterSize>
1

> <ConfClashScore>
0 

> <ConfOneFourInteractionScore>
-0.982677 

> <ConfScore>
-0.0724742 

> <ConfScorePBest>
0.00532753 

> <ConfTolerance>
0.303424 

> <RosettaParamsInstructions>
M  ROOT 3
M  POLY_N_BB 3
M  POLY_CA_BB 4
M  POLY_C_BB 2
M  POLY_O_BB 5
M  POLY_IGNORE 9 10 11 12 13 14 15 16 17 18 
M  POLY_UPPER 6
M  POLY_LOWER 8
M  POLY_CHG 0
M  POLY_PROPERTIES ALPHA_AA L_AA PROTEIN AROMATIC POLYMER 
M  END

$$$$



 32 32  0  0  0  0  0  0  0  0999 V2000
   -1.8484    2.6582    3.4007 H   0  0  0  1  0  0  0  0  0  0  0  0
   -0.6233    0.9786    2.9958 C   0  0  0  1  0  0  0  0  0  0  0  0
    0.0896    3.3281    3.1417 N   0  0  0  1  0  0  0  0  0  0  0  0
   -1.0042    2.4406    2.7803 C   0  0  0  1  0  0  0  0  0  0  0  0
   -1.4758    0.0948    3.0202 O   0  0  0  1  0  0  0  0  0  0  0  0
    0.6810    0.7357    3.1528 N   0  0  0  1  0  0  0  0  0  0  0  0
    0.3245    4.0606    2.5345 H   0  0  0  1  0  0  0  0  0  0  0  0
    0.7921    3.1781    4.2837 C   0  0  0  1  0  0  0  0  0  0  0  0
    1.1800   -0.5354    3.6560 C   0  0  0  1  0  0  0  0  0  0  0  0
    2.0439    4.0078    4.4625 C   0  0  0  1  0  0  0  0  0  0  0  0
    0.4274    2.3903    5.1555 O   0  0  0  1  0  0  0  0  0  0  0  0
    1.3241    1.4379    2.9211 H   0  0  0  1  0  0  0  0  0  0  0  0
    1.9132   -0.3563    4.4145 H   0  0  0  1  0  0  0  0  0  0  0  0
    1.6244   -1.0866    2.8538 H   0  0  0  1  0  0  0  0  0  0  0  0
    0.3692   -1.0979    4.0698 H   0  0  0  1  0  0  0  0  0  0  0  0
    2.8147    3.6340    3.8214 H   0  0  0  1  0  0  0  0  0  0  0  0
    2.3677    3.9495    5.4807 H   0  0  0  1  0  0  0  0  0  0  0  0
    1.8349    5.0268    4.2119 H   0  0  0  1  0  0  0  0  0  0  0  0
   -4.1391    3.2984    1.5955 F   0  0  0  1  0  0  0  0  0  0  0  0
   -3.3302    4.3096    1.2252 C   0  0  0  1  0  0  0  0  0  0  0  0
   -1.9734    4.0909    1.0783 C   0  0  0  1  0  0  0  0  0  0  0  0
   -1.1418    5.1304    0.6920 C   0  0  0  1  0  0  0  0  0  0  0  0
   -1.6684    6.3868    0.4589 C   0  0  0  1  0  0  0  0  0  0  0  0
   -3.0291    6.6060    0.6062 C   0  0  0  1  0  0  0  0  0  0  0  0
   -3.8586    5.5697    0.9914 C   0  0  0  1  0  0  0  0  0  0  0  0
   -1.3969    2.7193    1.3387 C   0  0  0  1  0  0  0  0  0  0  0  0
   -0.1214    4.9649    0.5776 H   0  0  0  1  0  0  0  0  0  0  0  0
   -1.0437    7.1676    0.1729 H   0  0  0  1  0  0  0  0  0  0  0  0
   -3.4260    7.5505    0.4269 H   0  0  0  1  0  0  0  0  0  0  0  0
   -4.8789    5.7352    1.1058 H   0  0  0  1  0  0  0  0  0  0  0  0
   -2.1282    1.9936    1.0496 H   0  0  0  1  0  0  0  0  0  0  0  0
   -0.5233    2.6076    0.7311 H   0  0  0  1  0  0  0  0  0  0  0  0
  1  4  1  0  0  0  0
  2  4  1  0  0  0  0
  2  5  2  0  0  0  0
  2  6  1  0  0  0  0
  3  4  1  0  0  0  0
  3  7  1  0  0  0  0
  3  8  1  0  0  0  0
  4 26  1  0  0  0  0
  6  9  1  0  0  0  0
  6 12  1  0  0  0  0
  8 10  1  0  0  0  0
  8 11  2  0  0  0  0
  9 13  1  0  0  0  0
  9 14  1  0  0  0  0
  9 15  1  0  0  0  0
 10 16  1  0  0  0  0
 10 17  1  0  0  0  0
 10 18  1  0  0  0  0
 19 20  1  0  0  0  0
 20 21  4  0  0  0  0
 20 25  4  0  0  0  0
 21 22  4  0  0  0  0
 21 26  1  0  0  0  0
 22 23  4  0  0  0  0
 22 27  1  0  0  0  0
 23 24  4  0  0  0  0
 23 28  1  0  0  0  0
 24 25  4  0  0  0  0
 24 29  1  0  0  0  0
 25 30  1  0  0  0  0
 26 31  1  0  0  0  0
 26 32  1  0  0  0  0
M  END
> <BCLConfClusterSize>
1

> <ConfClashScore>
0.00113071 

> <ConfOneFourInteractionScore>
-0.956443 

> <ConfScore>
-0.0714733 

> <ConfScorePBest>
0.00529905 

> <ConfTolerance>
0.548677 

> <RosettaParamsInstructions>
M  ROOT 3
M  POLY_N_BB 3
M  POLY_CA_BB 4
M  POLY_C_BB 2
M  POLY_O_BB 5
M  POLY_IGNORE 9 10 11 12 13 14 15 16 17 18 
M  POLY_UPPER 6
M  POLY_LOWER 8
M  POLY_CHG 0
M  POLY_PROPERTIES ALPHA_AA L_AA PROTEIN AROMATIC POLYMER 
M  END

$$$$



 32 32  0  0  0  0  0  0  0  0999 V2000
    0.0453    3.3485    2.7165 H   0  0  0  1  0  0  0  0  0  0  0  0
   -1.6055    2.7605    3.8540 C   0  0  0  1  0  0  0  0  0  0  0  0
    0.0728    1.3043    2.7165 N   0  0  0  1  0  0  0  0  0  0  0  0
   -0.6731    2.5569    2.6699 C   0  0  0  1  0  0  0  0  0  0  0  0
   -2.6141    2.0691    3.9891 O   0  0  0  1  0  0  0  0  0  0  0  0
   -1.2951    3.7150    4.7444 N   0  0  0  1  0  0  0  0  0  0  0  0
   -0.4091    0.4616    2.5822 H   0  0  0  1  0  0  0  0  0  0  0  0
    1.3901    1.2658    2.9361 C   0  0  0  1  0  0  0  0  0  0  0  0
   -2.1688    3.9661    5.8809 C   0  0  0  1  0  0  0  0  0  0  0  0
    1.9978   -0.1143    3.0448 C   0  0  0  1  0  0  0  0  0  0  0  0
    2.0808    2.2780    3.0455 O   0  0  0  1  0  0  0  0  0  0  0  0
   -0.4783    4.2441    4.6293 H   0  0  0  1  0  0  0  0  0  0  0  0
   -2.5977    3.0436    6.2124 H   0  0  0  1  0  0  0  0  0  0  0  0
   -2.9492    4.6374    5.5889 H   0  0  0  1  0  0  0  0  0  0  0  0
   -1.6019    4.4020    6.6768 H   0  0  0  1  0  0  0  0  0  0  0  0
    1.6437   -0.7249    2.2406 H   0  0  0  1  0  0  0  0  0  0  0  0
    1.7160   -0.5554    3.9780 H   0  0  0  1  0  0  0  0  0  0  0  0
    3.0639   -0.0394    2.9927 H   0  0  0  1  0  0  0  0  0  0  0  0
   -4.1391    3.2984    1.5955 F   0  0  0  1  0  0  0  0  0  0  0  0
   -3.3302    4.3096    1.2252 C   0  0  0  1  0  0  0  0  0  0  0  0
   -1.9734    4.0909    1.0783 C   0  0  0  1  0  0  0  0  0  0  0  0
   -1.1418    5.1304    0.6920 C   0  0  0  1  0  0  0  0  0  0  0  0
   -1.6684    6.3868    0.4589 C   0  0  0  1  0  0  0  0  0  0  0  0
   -3.0291    6.6060    0.6062 C   0  0  0  1  0  0  0  0  0  0  0  0
   -3.8586    5.5697    0.9914 C   0  0  0  1  0  0  0  0  0  0  0  0
   -1.3969    2.7193    1.3387 C   0  0  0  1  0  0  0  0  0  0  0  0
   -0.1214    4.9649    0.5776 H   0  0  0  1  0  0  0  0  0  0  0  0
   -1.0437    7.1676    0.1729 H   0  0  0  1  0  0  0  0  0  0  0  0
   -3.4260    7.5505    0.4269 H   0  0  0  1  0  0  0  0  0  0  0  0
   -4.8789    5.7352    1.1058 H   0  0  0  1  0  0  0  0  0  0  0  0
   -2.2003    2.0130    1.3115 H   0  0  0  1  0  0  0  0  0  0  0  0
   -0.7014    2.4995    0.5558 H   0  0  0  1  0  0  0  0  0  0  0  0
  1  4  1  0  0  0  0
  2  4  1  0  0  0  0
  2  5  2  0  0  0  0
  2  6  1  0  0  0  0
  3  4  1  0  0  0  0
  3  7  1  0  0  0  0
  3  8  1  0  0  0  0
  4 26  1  0  0  0  0
  6  9  1  0  0  0  0
  6 12  1  0  0  0  0
  8 10  1  0  0  0  0
  8 11  2  0  0  0  0
  9 13  1  0  0  0  0
  9 14  1  0  0  0  0
  9 15  1  0  0  0  0
 10 16  1  0  0  0  0
 10 17  1  0  0  0  0
 10 18  1  0  0  0  0
 19 20  1  0  0  0  0
 20 21  4  0  0  0  0
 20 25  4  0  0  0  0
 21 22  4  0  0  0  0
 21 26  1  0  0  0  0
 22 23  4  0  0  0  0
 22 27  1  0  0  0  0
 23 24  4  0  0  0  0
 23 28  1  0  0  0  0
 24 25  4  0  0  0  0
 24 29  1  0  0  0  0
 25 30  1  0  0  0  0
 26 31  1  0  0  0  0
 26 32  1  0  0  0  0
M  END
> <BCLConfClusterSize>
1

> <ConfClashScore>
0 

> <ConfOneFourInteractionScore>
-0.979134 

> <ConfScore>
-0.0697131 

> <ConfScorePBest>
0.00527057 

> <ConfTolerance>
0.29228 

> <RosettaParamsInstructions>
M  ROOT 3
M  POLY_N_BB 3
M  POLY_CA_BB 4
M  POLY_C_BB 2
M  POLY_O_BB 5
M  POLY_IGNORE 9 10 11 12 13 14 15 16 17 18 
M  POLY_UPPER 6
M  POLY_LOWER 8
M  POLY_CHG 0
M  POLY_PROPERTIES ALPHA_AA L_AA PROTEIN AROMATIC POLYMER 
M  END

$$$$



 32 32  0  0  0  0  0  0  0  0999 V2000
   -2.5152    2.4309    3.1193 H   0  0  0  1  0  0  0  0  0  0  0  0
   -1.1492    0.8243    2.9086 C   0  0  0  1  0  0  0  0  0  0  0  0
   -0.6155    3.1032    3.6185 N   0  0  0  1  0  0  0  0  0  0  0  0
   -1.5040    2.2943    2.7973 C   0  0  0  1  0  0  0  0  0  0  0  0
   -0.0914    0.3940    2.4793 O   0  0  0  1  0  0  0  0  0  0  0  0
   -2.0631    0.0499    3.5003 N   0  0  0  1  0  0  0  0  0  0  0  0
    0.3525    3.0216    3.4897 H   0  0  0  1  0  0  0  0  0  0  0  0
   -1.0738    3.9532    4.5418 C   0  0  0  1  0  0  0  0  0  0  0  0
   -1.8950   -1.3898    3.6311 C   0  0  0  1  0  0  0  0  0  0  0  0
   -0.0176    4.6537    5.3743 C   0  0  0  1  0  0  0  0  0  0  0  0
   -2.2723    4.1668    4.7197 O   0  0  0  1  0  0  0  0  0  0  0  0
   -2.8750    0.4657    3.8586 H   0  0  0  1  0  0  0  0  0  0  0  0
   -1.0394   -1.5956    4.2398 H   0  0  0  1  0  0  0  0  0  0  0  0
   -1.7554   -1.8218    2.6622 H   0  0  0  1  0  0  0  0  0  0  0  0
   -2.7666   -1.8104    4.0875 H   0  0  0  1  0  0  0  0  0  0  0  0
   -0.3999    4.8353    6.3570 H   0  0  0  1  0  0  0  0  0  0  0  0
    0.2392    5.5849    4.9141 H   0  0  0  1  0  0  0  0  0  0  0  0
    0.8531    4.0352    5.4392 H   0  0  0  1  0  0  0  0  0  0  0  0
   -4.1392    3.2983    1.5955 F   0  0  0  1  0  0  0  0  0  0  0  0
   -3.3303    4.3095    1.2252 C   0  0  0  1  0  0  0  0  0  0  0  0
   -1.9735    4.0910    1.0783 C   0  0  0  1  0  0  0  0  0  0  0  0
   -1.1417    5.1304    0.6920 C   0  0  0  1  0  0  0  0  0  0  0  0
   -1.6684    6.3867    0.4589 C   0  0  0  1  0  0  0  0  0  0  0  0
   -3.0292    6.6061    0.6062 C   0  0  0  1  0  0  0  0  0  0  0  0
   -3.8585    5.5697    0.9914 C   0  0  0  1  0  0  0  0  0  0  0  0
   -1.3970    2.7194    1.3387 C   0  0  0  1  0  0  0  0  0  0  0  0
   -0.1213    4.9649    0.5776 H   0  0  0  1  0  0  0  0  0  0  0  0
   -1.0438    7.1675    0.1730 H   0  0  0  1  0  0  0  0  0  0  0  0
   -3.4261    7.5506    0.4269 H   0  0  0  1  0  0  0  0  0  0  0  0
   -4.8788    5.7352    1.1058 H   0  0  0  1  0  0  0  0  0  0  0  0
   -1.9242    2.0086    0.7373 H   0  0  0  1  0  0  0  0  0  0  0  0
   -0.3637    2.7258    1.0607 H   0  0  0  1  0  0  0  0  0  0  0  0
  1  4  1  0  0  0  0
  2  4  1  0  0  0  0
  2  5  2  0  0  0  0
  2  6  1  0  0  0  0
  3  4  1  0  0  0  0
  3  7  1  0  0  0  0
  3  8  1  0  0  0  0
  4 26  1  0  0  0  0
  6  9  1  0  0  0  0
  6 12  1  0  0  0  0
  8 10  1  0  0  0  0
  8 11  2  0  0  0  0
  9 13  1  0  0  0  0
  9 14  1  0  0  0  0
  9 15  1  0  0  0  0
 10 16  1  0  0  0  0
 10 17  1  0  0  0  0
 10 18  1  0  0  0  0
 19 20  1  0  0  0  0
 20 21  4  0  0  0  0
 20 25  4  0  0  0  0
 21 22  4  0  0  0  0
 21 26  1  0  0  0  0
 22 23  4  0  0  0  0
 22 27  1  0  0  0  0
 23 24  4  0  0  0  0
 23 28  1  0  0  0  0
 24 25  4  0  0  0  0
 24 29  1  0  0  0  0
 25 30  1  0  0  0  0
 26 31  1  0  0  0  0
 26 32  1  0  0  0  0
M  END
> <BCLConfClusterSize>
1

> <ConfClashScore>
0 

> <ConfOneFourInteractionScore>
-0.97615 

> <ConfScore>
-0.0663325 

> <ConfScorePBest>
0.00524209 

> <ConfTolerance>
0.472714 

> <RosettaParamsInstructions>
M  ROOT 3
M  POLY_N_BB 3
M  POLY_CA_BB 4
M  POLY_C_BB 2
M  POLY_O_BB 5
M  POLY_IGNORE 9 10 11 12 13 14 15 16 17 18 
M  POLY_UPPER 6
M  POLY_LOWER 8
M  POLY_CHG 0
M  POLY_PROPERTIES ALPHA_AA L_AA PROTEIN AROMATIC POLYMER 
M  END

$$$$



 32 32  0  0  0  0  0  0  0  0999 V2000
    0.0423    2.5931   -0.2070 H   0  0  0  1  0  0  0  0  0  0  0  0
   -0.3060    0.6271    0.4966 C   0  0  0  1  0  0  0  0  0  0  0  0
   -1.7694    1.9373   -0.9570 N   0  0  0  1  0  0  0  0  0  0  0  0
   -0.7990    2.0211    0.1243 C   0  0  0  1  0  0  0  0  0  0  0  0
   -1.0643   -0.2108    0.9563 O   0  0  0  1  0  0  0  0  0  0  0  0
    0.9908    0.3958    0.2867 N   0  0  0  1  0  0  0  0  0  0  0  0
   -2.5086    1.2985   -0.8807 H   0  0  0  1  0  0  0  0  0  0  0  0
   -1.6875    2.7011   -2.0501 C   0  0  0  1  0  0  0  0  0  0  0  0
    1.7031   -0.8002    0.7110 C   0  0  0  1  0  0  0  0  0  0  0  0
   -2.8744    2.6488   -3.0204 C   0  0  0  1  0  0  0  0  0  0  0  0
   -0.7588    3.4798   -2.2594 O   0  0  0  1  0  0  0  0  0  0  0  0
    1.5024    1.0830   -0.1891 H   0  0  0  1  0  0  0  0  0  0  0  0
    2.7435   -0.5759    0.8218 H   0  0  0  1  0  0  0  0  0  0  0  0
    1.5804   -1.5679   -0.0243 H   0  0  0  1  0  0  0  0  0  0  0  0
    1.3093   -1.1363    1.6474 H   0  0  0  1  0  0  0  0  0  0  0  0
   -3.7856    2.5644   -2.4659 H   0  0  0  1  0  0  0  0  0  0  0  0
   -2.7701    1.8017   -3.6658 H   0  0  0  1  0  0  0  0  0  0  0  0
   -2.8954    3.5438   -3.6065 H   0  0  0  1  0  0  0  0  0  0  0  0
   -4.1390    3.2984    1.5955 F   0  0  0  1  0  0  0  0  0  0  0  0
   -3.3302    4.3097    1.2252 C   0  0  0  1  0  0  0  0  0  0  0  0
   -1.9734    4.0909    1.0783 C   0  0  0  1  0  0  0  0  0  0  0  0
   -1.1418    5.1304    0.6920 C   0  0  0  1  0  0  0  0  0  0  0  0
   -1.6684    6.3868    0.4589 C   0  0  0  1  0  0  0  0  0  0  0  0
   -3.0292    6.6061    0.6062 C   0  0  0  1  0  0  0  0  0  0  0  0
   -3.8585    5.5697    0.9914 C   0  0  0  1  0  0  0  0  0  0  0  0
   -1.3970    2.7192    1.3387 C   0  0  0  1  0  0  0  0  0  0  0  0
   -0.1214    4.9648    0.5776 H   0  0  0  1  0  0  0  0  0  0  0  0
   -1.0437    7.1676    0.1729 H   0  0  0  1  0  0  0  0  0  0  0  0
   -3.4261    7.5505    0.4269 H   0  0  0  1  0  0  0  0  0  0  0  0
   -4.8789    5.7352    1.1058 H   0  0  0  1  0  0  0  0  0  0  0  0
   -0.6266    2.8192    2.0746 H   0  0  0  1  0  0  0  0  0  0  0  0
   -2.1801    2.0997    1.7233 H   0  0  0  1  0  0  0  0  0  0  0  0
  1  4  1  0  0  0  0
  2  4  1  0  0  0  0
  2  5  2  0  0  0  0
  2  6  1  0  0  0  0
  3  4  1  0  0  0  0
  3  7  1  0  0  0  0
  3  8  1  0  0  0  0
  4 26  1  0  0  0  0
  6  9  1  0  0  0  0
  6 12  1  0  0  0  0
  8 10  1  0  0  0  0
  8 11  2  0  0  0  0
  9 13  1  0  0  0  0
  9 14  1  0  0  0  0
  9 15  1  0  0  0  0
 10 16  1  0  0  0  0
 10 17  1  0  0  0  0
 10 18  1  0  0  0  0
 19 20  1  0  0  0  0
 20 21  4  0  0  0  0
 20 25  4  0  0  0  0
 21 22  4  0  0  0  0
 21 26  1  0  0  0  0
 22 23  4  0  0  0  0
 22 27  1  0  0  0  0
 23 24  4  0  0  0  0
 23 28  1  0  0  0  0
 24 25  4  0  0  0  0
 24 29  1  0  0  0  0
 25 30  1  0  0  0  0
 26 31  1  0  0  0  0
 26 32  1  0  0  0  0
M  END
> <BCLConfClusterSize>
1

> <ConfClashScore>
0 

> <ConfOneFourInteractionScore>
-0.990503 

> <ConfScore>
-0.0635324 

> <ConfScorePBest>
0.00521361 

> <ConfTolerance>
0.445776 

> <RosettaParamsInstructions>
M  ROOT 3
M  POLY_N_BB 3
M  POLY_CA_BB 4
M  POLY_C_BB 2
M  POLY_O_BB 5
M  POLY_IGNORE 9 10 11 12 13 14 15 16 17 18 
M  POLY_UPPER 6
M  POLY_LOWER 8
M  POLY_CHG 0
M  POLY_PROPERTIES ALPHA_AA L_AA PROTEIN AROMATIC POLYMER 
M  END

$$$$



 32 32  0  0  0  0  0  0  0  0999 V2000
   -0.8289    0.9998    0.2583 H   0  0  0  1  0  0  0  0  0  0  0  0
   -2.3402    1.9385   -0.8520 C   0  0  0  1  0  0  0  0  0  0  0  0
    0.0198    2.6367   -0.6528 N   0  0  0  1  0  0  0  0  0  0  0  0
   -1.1061    2.0052    0.0190 C   0  0  0  1  0  0  0  0  0  0  0  0
   -3.2616    1.1690   -0.5828 O   0  0  0  1  0  0  0  0  0  0  0  0
   -2.3994    2.7427   -1.9252 N   0  0  0  1  0  0  0  0  0  0  0  0
    0.4584    3.3847   -0.1961 H   0  0  0  1  0  0  0  0  0  0  0  0
    0.4989    2.2749   -1.8412 C   0  0  0  1  0  0  0  0  0  0  0  0
   -3.4982    2.6881   -2.8779 C   0  0  0  1  0  0  0  0  0  0  0  0
    1.7421    3.0238   -2.3287 C   0  0  0  1  0  0  0  0  0  0  0  0
    0.0331    1.4009   -2.5711 O   0  0  0  1  0  0  0  0  0  0  0  0
   -1.6775    3.3890   -2.0723 H   0  0  0  1  0  0  0  0  0  0  0  0
   -4.3786    3.1013   -2.4317 H   0  0  0  1  0  0  0  0  0  0  0  0
   -3.6817    1.6703   -3.1523 H   0  0  0  1  0  0  0  0  0  0  0  0
   -3.2421    3.2526   -3.7500 H   0  0  0  1  0  0  0  0  0  0  0  0
    1.5987    4.0762   -2.1993 H   0  0  0  1  0  0  0  0  0  0  0  0
    1.9031    2.8108   -3.3648 H   0  0  0  1  0  0  0  0  0  0  0  0
    2.5934    2.7079   -1.7626 H   0  0  0  1  0  0  0  0  0  0  0  0
   -4.1397    3.3019    1.6037 F   0  0  0  1  0  0  0  0  0  0  0  0
   -3.3319    4.3114    1.2268 C   0  0  0  1  0  0  0  0  0  0  0  0
   -1.9715    4.0915    1.0765 C   0  0  0  1  0  0  0  0  0  0  0  0
   -1.1416    5.1287    0.6948 C   0  0  0  1  0  0  0  0  0  0  0  0
   -1.6705    6.3877    0.4572 C   0  0  0  1  0  0  0  0  0  0  0  0
   -3.0268    6.6073    0.6071 C   0  0  0  1  0  0  0  0  0  0  0  0
   -3.8591    5.5669    0.9899 C   0  0  0  1  0  0  0  0  0  0  0  0
   -1.3961    2.7181    1.3297 C   0  0  0  1  0  0  0  0  0  0  0  0
   -0.1204    4.9645    0.5860 H   0  0  0  1  0  0  0  0  0  0  0  0
   -1.0466    7.1673    0.1662 H   0  0  0  1  0  0  0  0  0  0  0  0
   -3.4230    7.5530    0.4327 H   0  0  0  1  0  0  0  0  0  0  0  0
   -4.8802    5.7310    1.0988 H   0  0  0  1  0  0  0  0  0  0  0  0
   -0.4866    2.8157    1.8847 H   0  0  0  1  0  0  0  0  0  0  0  0
   -2.0990    2.1419    1.8944 H   0  0  0  1  0  0  0  0  0  0  0  0
  1  4  1  0  0  0  0
  2  4  1  0  0  0  0
  2  5  2  0  0  0  0
  2  6  1  0  0  0  0
  3  4  1  0  0  0  0
  3  7  1  0  0  0  0
  3  8  1  0  0  0  0
  4 26  1  0  0  0  0
  6  9  1  0  0  0  0
  6 12  1  0  0  0  0
  8 10  1  0  0  0  0
  8 11  2  0  0  0  0
  9 13  1  0  0  0  0
  9 14  1  0  0  0  0
  9 15  1  0  0  0  0
 10 16  1  0  0  0  0
 10 17  1  0  0  0  0
 10 18  1  0  0  0  0
 19 20  1  0  0  0  0
 20 21  4  0  0  0  0
 20 25  4  0  0  0  0
 21 22  4  0  0  0  0
 21 26  1  0  0  0  0
 22 23  4  0  0  0  0
 22 27  1  0  0  0  0
 23 24  4  0  0  0  0
 23 28  1  0  0  0  0
 24 25  4  0  0  0  0
 24 29  1  0  0  0  0
 25 30  1  0  0  0  0
 26 31  1  0  0  0  0
 26 32  1  0  0  0  0
M  END
> <BCLConfClusterSize>
1

> <ConfClashScore>
0 

> <ConfOneFourInteractionScore>
-0.957074 

> <ConfScore>
-0.0600798 

> <ConfScorePBest>
0.00518512 

> <ConfTolerance>
0.270676 

> <RosettaParamsInstructions>
M  ROOT 3
M  POLY_N_BB 3
M  POLY_CA_BB 4
M  POLY_C_BB 2
M  POLY_O_BB 5
M  POLY_IGNORE 9 10 11 12 13 14 15 16 17 18 
M  POLY_UPPER 6
M  POLY_LOWER 8
M  POLY_CHG 0
M  POLY_PROPERTIES ALPHA_AA L_AA PROTEIN AROMATIC POLYMER 
M  END

$$$$



 32 32  0  0  0  0  0  0  0  0999 V2000
   -2.2164    1.8668   -0.4165 H   0  0  0  1  0  0  0  0  0  0  0  0
   -0.2033    2.3301   -0.8458 C   0  0  0  1  0  0  0  0  0  0  0  0
   -1.0072    0.4308    0.4322 N   0  0  0  1  0  0  0  0  0  0  0  0
   -1.2825    1.8215    0.1037 C   0  0  0  1  0  0  0  0  0  0  0  0
    0.9812    2.1648   -0.6048 O   0  0  0  1  0  0  0  0  0  0  0  0
   -0.6414    2.9572   -1.9386 N   0  0  0  1  0  0  0  0  0  0  0  0
   -0.3010    0.2449    1.0858 H   0  0  0  1  0  0  0  0  0  0  0  0
   -1.6587   -0.6131   -0.1026 C   0  0  0  1  0  0  0  0  0  0  0  0
    0.2651    3.5325   -2.9209 C   0  0  0  1  0  0  0  0  0  0  0  0
   -1.1567   -1.9836    0.3083 C   0  0  0  1  0  0  0  0  0  0  0  0
   -2.6033   -0.4862   -0.8773 O   0  0  0  1  0  0  0  0  0  0  0  0
   -1.6075    3.0330   -2.0850 H   0  0  0  1  0  0  0  0  0  0  0  0
    1.1046    2.8828   -3.0559 H   0  0  0  1  0  0  0  0  0  0  0  0
    0.6049    4.4869   -2.5764 H   0  0  0  1  0  0  0  0  0  0  0  0
   -0.2474    3.6508   -3.8527 H   0  0  0  1  0  0  0  0  0  0  0  0
   -0.5489   -1.8935    1.1843 H   0  0  0  1  0  0  0  0  0  0  0  0
   -0.5763   -2.4037   -0.4864 H   0  0  0  1  0  0  0  0  0  0  0  0
   -1.9905   -2.6208    0.5171 H   0  0  0  1  0  0  0  0  0  0  0  0
   -4.1398    3.3019    1.6037 F   0  0  0  1  0  0  0  0  0  0  0  0
   -3.3319    4.3114    1.2268 C   0  0  0  1  0  0  0  0  0  0  0  0
   -1.9715    4.0914    1.0765 C   0  0  0  1  0  0  0  0  0  0  0  0
   -1.1416    5.1287    0.6948 C   0  0  0  1  0  0  0  0  0  0  0  0
   -1.6705    6.3878    0.4572 C   0  0  0  1  0  0  0  0  0  0  0  0
   -3.0268    6.6073    0.6071 C   0  0  0  1  0  0  0  0  0  0  0  0
   -3.8590    5.5669    0.9899 C   0  0  0  1  0  0  0  0  0  0  0  0
   -1.3961    2.7180    1.3297 C   0  0  0  1  0  0  0  0  0  0  0  0
   -0.1204    4.9646    0.5860 H   0  0  0  1  0  0  0  0  0  0  0  0
   -1.0467    7.1673    0.1662 H   0  0  0  1  0  0  0  0  0  0  0  0
   -3.4230    7.5529    0.4327 H   0  0  0  1  0  0  0  0  0  0  0  0
   -4.8802    5.7311    1.0987 H   0  0  0  1  0  0  0  0  0  0  0  0
   -0.4158    2.8414    1.7404 H   0  0  0  1  0  0  0  0  0  0  0  0
   -2.0225    2.2241    2.0429 H   0  0  0  1  0  0  0  0  0  0  0  0
  1  4  1  0  0  0  0
  2  4  1  0  0  0  0
  2  5  2  0  0  0  0
  2  6  1  0  0  0  0
  3  4  1  0  0  0  0
  3  7  1  0  0  0  0
  3  8  1  0  0  0  0
  4 26  1  0  0  0  0
  6  9  1  0  0  0  0
  6 12  1  0  0  0  0
  8 10  1  0  0  0  0
  8 11  2  0  0  0  0
  9 13  1  0  0  0  0
  9 14  1  0  0  0  0
  9 15  1  0  0  0  0
 10 16  1  0  0  0  0
 10 17  1  0  0  0  0
 10 18  1  0  0  0  0
 19 20  1  0  0  0  0
 20 21  4  0  0  0  0
 20 25  4  0  0  0  0
 21 22  4  0  0  0  0
 21 26  1  0  0  0  0
 22 23  4  0  0  0  0
 22 27  1  0  0  0  0
 23 24  4  0  0  0  0
 23 28  1  0  0  0  0
 24 25  4  0  0  0  0
 24 29  1  0  0  0  0
 25 30  1  0  0  0  0
 26 31  1  0  0  0  0
 26 32  1  0  0  0  0
M  END
> <BCLConfClusterSize>
1

> <ConfClashScore>
0 

> <ConfOneFourInteractionScore>
-0.978127 

> <ConfScore>
-0.0600048 

> <ConfScorePBest>
0.00515664 

> <ConfTolerance>
0.298753 

> <RosettaParamsInstructions>
M  ROOT 3
M  POLY_N_BB 3
M  POLY_CA_BB 4
M  POLY_C_BB 2
M  POLY_O_BB 5
M  POLY_IGNORE 9 10 11 12 13 14 15 16 17 18 
M  POLY_UPPER 6
M  POLY_LOWER 8
M  POLY_CHG 0
M  POLY_PROPERTIES ALPHA_AA L_AA PROTEIN AROMATIC POLYMER 
M  END

$$$$



 32 32  0  0  0  0  0  0  0  0999 V2000
   -0.7988    0.9120    0.3973 H   0  0  0  1  0  0  0  0  0  0  0  0
   -2.6943    1.4481   -0.3750 C   0  0  0  1  0  0  0  0  0  0  0  0
   -0.4888    2.4729   -0.9195 N   0  0  0  1  0  0  0  0  0  0  0  0
   -1.2914    1.8142    0.1003 C   0  0  0  1  0  0  0  0  0  0  0  0
   -3.2313    0.3994   -0.0282 O   0  0  0  1  0  0  0  0  0  0  0  0
   -3.2842    2.3357   -1.1808 N   0  0  0  1  0  0  0  0  0  0  0  0
   -0.2256    3.4099   -0.8049 H   0  0  0  1  0  0  0  0  0  0  0  0
   -0.1101    1.8029   -2.0116 C   0  0  0  1  0  0  0  0  0  0  0  0
   -4.6850    2.2300   -1.5606 C   0  0  0  1  0  0  0  0  0  0  0  0
    0.7264    2.5838   -3.0064 C   0  0  0  1  0  0  0  0  0  0  0  0
   -0.4112    0.6274   -2.2143 O   0  0  0  1  0  0  0  0  0  0  0  0
   -2.7551    3.0838   -1.5282 H   0  0  0  1  0  0  0  0  0  0  0  0
   -5.2400    1.7885   -0.7593 H   0  0  0  1  0  0  0  0  0  0  0  0
   -4.7723    1.6183   -2.4341 H   0  0  0  1  0  0  0  0  0  0  0  0
   -5.0728    3.2056   -1.7675 H   0  0  0  1  0  0  0  0  0  0  0  0
    1.2649    3.3534   -2.4940 H   0  0  0  1  0  0  0  0  0  0  0  0
    0.0862    3.0256   -3.7412 H   0  0  0  1  0  0  0  0  0  0  0  0
    1.4183    1.9235   -3.4862 H   0  0  0  1  0  0  0  0  0  0  0  0
   -4.1397    3.3019    1.6037 F   0  0  0  1  0  0  0  0  0  0  0  0
   -3.3319    4.3114    1.2268 C   0  0  0  1  0  0  0  0  0  0  0  0
   -1.9715    4.0915    1.0765 C   0  0  0  1  0  0  0  0  0  0  0  0
   -1.1416    5.1287    0.6948 C   0  0  0  1  0  0  0  0  0  0  0  0
   -1.6705    6.3877    0.4572 C   0  0  0  1  0  0  0  0  0  0  0  0
   -3.0268    6.6073    0.6071 C   0  0  0  1  0  0  0  0  0  0  0  0
   -3.8591    5.5669    0.9899 C   0  0  0  1  0  0  0  0  0  0  0  0
   -1.3961    2.7181    1.3297 C   0  0  0  1  0  0  0  0  0  0  0  0
   -0.1204    4.9645    0.5860 H   0  0  0  1  0  0  0  0  0  0  0  0
   -1.0466    7.1673    0.1662 H   0  0  0  1  0  0  0  0  0  0  0  0
   -3.4230    7.5530    0.4327 H   0  0  0  1  0  0  0  0  0  0  0  0
   -4.8802    5.7310    1.0988 H   0  0  0  1  0  0  0  0  0  0  0  0
   -0.4130    2.8414    1.7335 H   0  0  0  1  0  0  0  0  0  0  0  0
   -2.0184    2.2269    2.0484 H   0  0  0  1  0  0  0  0  0  0  0  0
  1  4  1  0  0  0  0
  2  4  1  0  0  0  0
  2  5  2  0  0  0  0
  2  6  1  0  0  0  0
  3  4  1  0  0  0  0
  3  7  1  0  0  0  0
  3  8  1  0  0  0  0
  4 26  1  0  0  0  0
  6  9  1  0  0  0  0
  6 12  1  0  0  0  0
  8 10  1  0  0  0  0
  8 11  2  0  0  0  0
  9 13  1  0  0  0  0
  9 14  1  0  0  0  0
  9 15  1  0  0  0  0
 10 16  1  0  0  0  0
 10 17  1  0  0  0  0
 10 18  1  0  0  0  0
 19 20  1  0  0  0  0
 20 21  4  0  0  0  0
 20 25  4  0  0  0  0
 21 22  4  0  0  0  0
 21 26  1  0  0  0  0
 22 23  4  0  0  0  0
 22 27  1  0  0  0  0
 23 24  4  0  0  0  0
 23 28  1  0  0  0  0
 24 25  4  0  0  0  0
 24 29  1  0  0  0  0
 25 30  1  0  0  0  0
 26 31  1  0  0  0  0
 26 32  1  0  0  0  0
M  END
> <BCLConfClusterSize>
1

> <ConfClashScore>
0 

> <ConfOneFourInteractionScore>
-0.950605 

> <ConfScore>
-0.058206 

> <ConfScorePBest>
0.00512816 

> <ConfTolerance>
0.243868 

> <RosettaParamsInstructions>
M  ROOT 3
M  POLY_N_BB 3
M  POLY_CA_BB 4
M  POLY_C_BB 2
M  POLY_O_BB 5
M  POLY_IGNORE 9 10 11 12 13 14 15 16 17 18 
M  POLY_UPPER 6
M  POLY_LOWER 8
M  POLY_CHG 0
M  POLY_PROPERTIES ALPHA_AA L_AA PROTEIN AROMATIC POLYMER 
M  END

$$$$



 32 32  0  0  0  0  0  0  0  0999 V2000
   -0.5876    1.5905    2.9236 H   0  0  0  1  0  0  0  0  0  0  0  0
    0.3926    3.4564    2.8772 C   0  0  0  1  0  0  0  0  0  0  0  0
   -1.9050    2.9814    3.6936 N   0  0  0  1  0  0  0  0  0  0  0  0
   -0.8598    2.6108    2.7513 C   0  0  0  1  0  0  0  0  0  0  0  0
    1.5045    2.9911    2.6307 O   0  0  0  1  0  0  0  0  0  0  0  0
    0.2030    4.7197    3.2683 N   0  0  0  1  0  0  0  0  0  0  0  0
   -2.8012    3.2057    3.3665 H   0  0  0  1  0  0  0  0  0  0  0  0
   -1.6454    3.0166    5.0037 C   0  0  0  1  0  0  0  0  0  0  0  0
    1.3072    5.6481    3.4601 C   0  0  0  1  0  0  0  0  0  0  0  0
   -2.8097    3.4010    5.8959 C   0  0  0  1  0  0  0  0  0  0  0  0
   -0.5389    2.7568    5.4746 O   0  0  0  1  0  0  0  0  0  0  0  0
   -0.7114    5.0321    3.4317 H   0  0  0  1  0  0  0  0  0  0  0  0
    2.1582    5.1185    3.8346 H   0  0  0  1  0  0  0  0  0  0  0  0
    1.0201    6.4032    4.1619 H   0  0  0  1  0  0  0  0  0  0  0  0
    1.5550    6.1053    2.5250 H   0  0  0  1  0  0  0  0  0  0  0  0
   -3.6923    2.8909    5.5709 H   0  0  0  1  0  0  0  0  0  0  0  0
   -2.9678    4.4578    5.8399 H   0  0  0  1  0  0  0  0  0  0  0  0
   -2.5905    3.1258    6.9063 H   0  0  0  1  0  0  0  0  0  0  0  0
   -4.1397    3.3020    1.6037 F   0  0  0  1  0  0  0  0  0  0  0  0
   -3.3318    4.3115    1.2268 C   0  0  0  1  0  0  0  0  0  0  0  0
   -1.9715    4.0913    1.0765 C   0  0  0  1  0  0  0  0  0  0  0  0
   -1.1417    5.1287    0.6949 C   0  0  0  1  0  0  0  0  0  0  0  0
   -1.6705    6.3878    0.4572 C   0  0  0  1  0  0  0  0  0  0  0  0
   -3.0268    6.6072    0.6071 C   0  0  0  1  0  0  0  0  0  0  0  0
   -3.8591    5.5669    0.9899 C   0  0  0  1  0  0  0  0  0  0  0  0
   -1.3961    2.7179    1.3298 C   0  0  0  1  0  0  0  0  0  0  0  0
   -0.1205    4.9646    0.5860 H   0  0  0  1  0  0  0  0  0  0  0  0
   -1.0466    7.1674    0.1662 H   0  0  0  1  0  0  0  0  0  0  0  0
   -3.4229    7.5528    0.4327 H   0  0  0  1  0  0  0  0  0  0  0  0
   -4.8803    5.7311    1.0987 H   0  0  0  1  0  0  0  0  0  0  0  0
   -2.1625    1.9848    1.1878 H   0  0  0  1  0  0  0  0  0  0  0  0
   -0.5984    2.5390    0.6394 H   0  0  0  1  0  0  0  0  0  0  0  0
  1  4  1  0  0  0  0
  2  4  1  0  0  0  0
  2  5  2  0  0  0  0
  2  6  1  0  0  0  0
  3  4  1  0  0  0  0
  3  7  1  0  0  0  0
  3  8  1  0  0  0  0
  4 26  1  0  0  0  0
  6  9  1  0  0  0  0
  6 12  1  0  0  0  0
  8 10  1  0  0  0  0
  8 11  2  0  0  0  0
  9 13  1  0  0  0  0
  9 14  1  0  0  0  0
  9 15  1  0  0  0  0
 10 16  1  0  0  0  0
 10 17  1  0  0  0  0
 10 18  1  0  0  0  0
 19 20  1  0  0  0  0
 20 21  4  0  0  0  0
 20 25  4  0  0  0  0
 21 22  4  0  0  0  0
 21 26  1  0  0  0  0
 22 23  4  0  0  0  0
 22 27  1  0  0  0  0
 23 24  4  0  0  0  0
 23 28  1  0  0  0  0
 24 25  4  0  0  0  0
 24 29  1  0  0  0  0
 25 30  1  0  0  0  0
 26 31  1  0  0  0  0
 26 32  1  0  0  0  0
M  END
> <BCLConfClusterSize>
1

> <ConfClashScore>
0 

> <ConfOneFourInteractionScore>
-0.950605 

> <ConfScore>
-0.0572936 

> <ConfScorePBest>
0.00509968 

> <ConfTolerance>
0.26189 

> <RosettaParamsInstructions>
M  ROOT 3
M  POLY_N_BB 3
M  POLY_CA_BB 4
M  POLY_C_BB 2
M  POLY_O_BB 5
M  POLY_IGNORE 9 10 11 12 13 14 15 16 17 18 
M  POLY_UPPER 6
M  POLY_LOWER 8
M  POLY_CHG 0
M  POLY_PROPERTIES ALPHA_AA L_AA PROTEIN AROMATIC POLYMER 
M  END

$$$$



 32 32  0  0  0  0  0  0  0  0999 V2000
   -0.1731    1.6620    2.7057 H   0  0  0  1  0  0  0  0  0  0  0  0
    0.3956    3.6959    2.7875 C   0  0  0  1  0  0  0  0  0  0  0  0
   -1.5984    2.7036    3.7823 N   0  0  0  1  0  0  0  0  0  0  0  0
   -0.6635    2.6123    2.6708 C   0  0  0  1  0  0  0  0  0  0  0  0
    1.4310    3.6410    2.1446 O   0  0  0  1  0  0  0  0  0  0  0  0
    0.1143    4.6940    3.6299 N   0  0  0  1  0  0  0  0  0  0  0  0
   -2.5563    2.7791    3.5896 H   0  0  0  1  0  0  0  0  0  0  0  0
   -1.1924    2.6878    5.0688 C   0  0  0  1  0  0  0  0  0  0  0  0
    1.0455    5.7835    3.8829 C   0  0  0  1  0  0  0  0  0  0  0  0
   -2.2476    2.8098    6.1509 C   0  0  0  1  0  0  0  0  0  0  0  0
   -0.0017    2.5777    5.3582 O   0  0  0  1  0  0  0  0  0  0  0  0
   -0.7490    4.6925    4.0937 H   0  0  0  1  0  0  0  0  0  0  0  0
    2.0413    5.4609    3.6612 H   0  0  0  1  0  0  0  0  0  0  0  0
    0.9851    6.0724    4.9113 H   0  0  0  1  0  0  0  0  0  0  0  0
    0.7947    6.6181    3.2620 H   0  0  0  1  0  0  0  0  0  0  0  0
   -3.0838    3.3606    5.7739 H   0  0  0  1  0  0  0  0  0  0  0  0
   -1.8349    3.3217    6.9950 H   0  0  0  1  0  0  0  0  0  0  0  0
   -2.5686    1.8331    6.4475 H   0  0  0  1  0  0  0  0  0  0  0  0
   -4.1398    3.3019    1.6037 F   0  0  0  1  0  0  0  0  0  0  0  0
   -3.3319    4.3114    1.2268 C   0  0  0  1  0  0  0  0  0  0  0  0
   -1.9715    4.0914    1.0765 C   0  0  0  1  0  0  0  0  0  0  0  0
   -1.1416    5.1287    0.6948 C   0  0  0  1  0  0  0  0  0  0  0  0
   -1.6705    6.3878    0.4572 C   0  0  0  1  0  0  0  0  0  0  0  0
   -3.0268    6.6073    0.6071 C   0  0  0  1  0  0  0  0  0  0  0  0
   -3.8590    5.5669    0.9899 C   0  0  0  1  0  0  0  0  0  0  0  0
   -1.3961    2.7180    1.3297 C   0  0  0  1  0  0  0  0  0  0  0  0
   -0.1204    4.9646    0.5860 H   0  0  0  1  0  0  0  0  0  0  0  0
   -1.0467    7.1673    0.1662 H   0  0  0  1  0  0  0  0  0  0  0  0
   -3.4230    7.5529    0.4327 H   0  0  0  1  0  0  0  0  0  0  0  0
   -4.8802    5.7311    1.0987 H   0  0  0  1  0  0  0  0  0  0  0  0
   -2.1957    2.0070    1.3215 H   0  0  0  1  0  0  0  0  0  0  0  0
   -0.7056    2.4881    0.5454 H   0  0  0  1  0  0  0  0  0  0  0  0
  1  4  1  0  0  0  0
  2  4  1  0  0  0  0
  2  5  2  0  0  0  0
  2  6  1  0  0  0  0
  3  4  1  0  0  0  0
  3  7  1  0  0  0  0
  3  8  1  0  0  0  0
  4 26  1  0  0  0  0
  6  9  1  0  0  0  0
  6 12  1  0  0  0  0
  8 10  1  0  0  0  0
  8 11  2  0  0  0  0
  9 13  1  0  0  0  0
  9 14  1  0  0  0  0
  9 15  1  0  0  0  0
 10 16  1  0  0  0  0
 10 17  1  0  0  0  0
 10 18  1  0  0  0  0
 19 20  1  0  0  0  0
 20 21  4  0  0  0  0
 20 25  4  0  0  0  0
 21 22  4  0  0  0  0
 21 26  1  0  0  0  0
 22 23  4  0  0  0  0
 22 27  1  0  0  0  0
 23 24  4  0  0  0  0
 23 28  1  0  0  0  0
 24 25  4  0  0  0  0
 24 29  1  0  0  0  0
 25 30  1  0  0  0  0
 26 31  1  0  0  0  0
 26 32  1  0  0  0  0
M  END
> <BCLConfClusterSize>
1

> <ConfClashScore>
0 

> <ConfOneFourInteractionScore>
-0.957074 

> <ConfScore>
-0.0541879 

> <ConfScorePBest>
0.0050712 

> <ConfTolerance>
0.316496 

> <RosettaParamsInstructions>
M  ROOT 3
M  POLY_N_BB 3
M  POLY_CA_BB 4
M  POLY_C_BB 2
M  POLY_O_BB 5
M  POLY_IGNORE 9 10 11 12 13 14 15 16 17 18 
M  POLY_UPPER 6
M  POLY_LOWER 8
M  POLY_CHG 0
M  POLY_PROPERTIES ALPHA_AA L_AA PROTEIN AROMATIC POLYMER 
M  END

$$$$



 32 32  0  0  0  0  0  0  0  0999 V2000
   -1.7737    2.8432    3.4047 H   0  0  0  1  0  0  0  0  0  0  0  0
   -0.7241    1.0399    3.0872 C   0  0  0  1  0  0  0  0  0  0  0  0
    0.1936    3.3478    3.0756 N   0  0  0  1  0  0  0  0  0  0  0  0
   -0.9660    2.5188    2.7824 C   0  0  0  1  0  0  0  0  0  0  0  0
   -1.5573    0.1862    2.7860 O   0  0  0  1  0  0  0  0  0  0  0  0
    0.4007    0.7766    3.7638 N   0  0  0  1  0  0  0  0  0  0  0  0
    1.0371    3.1619    2.6125 H   0  0  0  1  0  0  0  0  0  0  0  0
    0.1484    4.3517    3.9527 C   0  0  0  1  0  0  0  0  0  0  0  0
    0.7947   -0.5784    4.1196 C   0  0  0  1  0  0  0  0  0  0  0  0
    1.4252    5.1564    4.0993 C   0  0  0  1  0  0  0  0  0  0  0  0
   -0.8542    4.6221    4.6086 O   0  0  0  1  0  0  0  0  0  0  0  0
    0.9789    1.5222    4.0286 H   0  0  0  1  0  0  0  0  0  0  0  0
    0.2480   -1.2778    3.5224 H   0  0  0  1  0  0  0  0  0  0  0  0
    0.5830   -0.7510    5.1542 H   0  0  0  1  0  0  0  0  0  0  0  0
    1.8429   -0.7025    3.9440 H   0  0  0  1  0  0  0  0  0  0  0  0
    1.9248    5.2087    3.1545 H   0  0  0  1  0  0  0  0  0  0  0  0
    2.0646    4.6832    4.8149 H   0  0  0  1  0  0  0  0  0  0  0  0
    1.1872    6.1452    4.4318 H   0  0  0  1  0  0  0  0  0  0  0  0
   -4.1391    3.2984    1.5955 F   0  0  0  1  0  0  0  0  0  0  0  0
   -3.3302    4.3096    1.2252 C   0  0  0  1  0  0  0  0  0  0  0  0
   -1.9734    4.0909    1.0783 C   0  0  0  1  0  0  0  0  0  0  0  0
   -1.1418    5.1304    0.6920 C   0  0  0  1  0  0  0  0  0  0  0  0
   -1.6684    6.3868    0.4589 C   0  0  0  1  0  0  0  0  0  0  0  0
   -3.0291    6.6060    0.6062 C   0  0  0  1  0  0  0  0  0  0  0  0
   -3.8586    5.5697    0.9914 C   0  0  0  1  0  0  0  0  0  0  0  0
   -1.3969    2.7193    1.3387 C   0  0  0  1  0  0  0  0  0  0  0  0
   -0.1214    4.9649    0.5776 H   0  0  0  1  0  0  0  0  0  0  0  0
   -1.0437    7.1676    0.1729 H   0  0  0  1  0  0  0  0  0  0  0  0
   -3.4260    7.5505    0.4269 H   0  0  0  1  0  0  0  0  0  0  0  0
   -4.8789    5.7352    1.1058 H   0  0  0  1  0  0  0  0  0  0  0  0
   -2.1396    1.9868    1.1001 H   0  0  0  1  0  0  0  0  0  0  0  0
   -0.5444    2.5825    0.7067 H   0  0  0  1  0  0  0  0  0  0  0  0
  1  4  1  0  0  0  0
  2  4  1  0  0  0  0
  2  5  2  0  0  0  0
  2  6  1  0  0  0  0
  3  4  1  0  0  0  0
  3  7  1  0  0  0  0
  3  8  1  0  0  0  0
  4 26  1  0  0  0  0
  6  9  1  0  0  0  0
  6 12  1  0  0  0  0
  8 10  1  0  0  0  0
  8 11  2  0  0  0  0
  9 13  1  0  0  0  0
  9 14  1  0  0  0  0
  9 15  1  0  0  0  0
 10 16  1  0  0  0  0
 10 17  1  0  0  0  0
 10 18  1  0  0  0  0
 19 20  1  0  0  0  0
 20 21  4  0  0  0  0
 20 25  4  0  0  0  0
 21 22  4  0  0  0  0
 21 26  1  0  0  0  0
 22 23  4  0  0  0  0
 22 27  1  0  0  0  0
 23 24  4  0  0  0  0
 23 28  1  0  0  0  0
 24 25  4  0  0  0  0
 24 29  1  0  0  0  0
 25 30  1  0  0  0  0
 26 31  1  0  0  0  0
 26 32  1  0  0  0  0
M  END
> <BCLConfClusterSize>
1

> <ConfClashScore>
0 

> <ConfOneFourInteractionScore>
-0.956443 

> <ConfScore>
-0.0522881 

> <ConfScorePBest>
0.00504272 

> <ConfTolerance>
0.28155 

> <RosettaParamsInstructions>
M  ROOT 3
M  POLY_N_BB 3
M  POLY_CA_BB 4
M  POLY_C_BB 2
M  POLY_O_BB 5
M  POLY_IGNORE 9 10 11 12 13 14 15 16 17 18 
M  POLY_UPPER 6
M  POLY_LOWER 8
M  POLY_CHG 0
M  POLY_PROPERTIES ALPHA_AA L_AA PROTEIN AROMATIC POLYMER 
M  END

$$$$



 32 32  0  0  0  0  0  0  0  0999 V2000
   -0.6681    1.0427    0.3054 H   0  0  0  1  0  0  0  0  0  0  0  0
   -2.6573    1.2278   -0.2903 C   0  0  0  1  0  0  0  0  0  0  0  0
   -0.7210    2.5497   -1.0660 N   0  0  0  1  0  0  0  0  0  0  0  0
   -1.3200    1.8563    0.0646 C   0  0  0  1  0  0  0  0  0  0  0  0
   -3.0553    0.2236    0.2767 O   0  0  0  1  0  0  0  0  0  0  0  0
   -3.3506    1.8435   -1.2493 N   0  0  0  1  0  0  0  0  0  0  0  0
   -0.4195    3.4747   -0.9478 H   0  0  0  1  0  0  0  0  0  0  0  0
   -0.5679    1.9692   -2.2596 C   0  0  0  1  0  0  0  0  0  0  0  0
   -4.6241    1.3348   -1.7365 C   0  0  0  1  0  0  0  0  0  0  0  0
    0.0204    2.7949   -3.3871 C   0  0  0  1  0  0  0  0  0  0  0  0
   -0.8759    0.8026   -2.4999 O   0  0  0  1  0  0  0  0  0  0  0  0
   -2.9899    2.6670   -1.6393 H   0  0  0  1  0  0  0  0  0  0  0  0
   -5.1100    0.7840   -0.9584 H   0  0  0  1  0  0  0  0  0  0  0  0
   -4.4539    0.6923   -2.5751 H   0  0  0  1  0  0  0  0  0  0  0  0
   -5.2447    2.1539   -2.0343 H   0  0  0  1  0  0  0  0  0  0  0  0
   -0.6114    3.6365   -3.5807 H   0  0  0  1  0  0  0  0  0  0  0  0
    0.0930    2.1933   -4.2690 H   0  0  0  1  0  0  0  0  0  0  0  0
    0.9947    3.1375   -3.1072 H   0  0  0  1  0  0  0  0  0  0  0  0
   -4.1398    3.3019    1.6037 F   0  0  0  1  0  0  0  0  0  0  0  0
   -3.3319    4.3114    1.2268 C   0  0  0  1  0  0  0  0  0  0  0  0
   -1.9715    4.0914    1.0765 C   0  0  0  1  0  0  0  0  0  0  0  0
   -1.1416    5.1287    0.6948 C   0  0  0  1  0  0  0  0  0  0  0  0
   -1.6705    6.3878    0.4572 C   0  0  0  1  0  0  0  0  0  0  0  0
   -3.0268    6.6073    0.6071 C   0  0  0  1  0  0  0  0  0  0  0  0
   -3.8590    5.5669    0.9899 C   0  0  0  1  0  0  0  0  0  0  0  0
   -1.3961    2.7180    1.3297 C   0  0  0  1  0  0  0  0  0  0  0  0
   -0.1204    4.9646    0.5860 H   0  0  0  1  0  0  0  0  0  0  0  0
   -1.0467    7.1673    0.1662 H   0  0  0  1  0  0  0  0  0  0  0  0
   -3.4230    7.5529    0.4327 H   0  0  0  1  0  0  0  0  0  0  0  0
   -4.8802    5.7311    1.0987 H   0  0  0  1  0  0  0  0  0  0  0  0
   -0.4083    2.8302    1.7253 H   0  0  0  1  0  0  0  0  0  0  0  0
   -2.0130    2.2172    2.0463 H   0  0  0  1  0  0  0  0  0  0  0  0
  1  4  1  0  0  0  0
  2  4  1  0  0  0  0
  2  5  2  0  0  0  0
  2  6  1  0  0  0  0
  3  4  1  0  0  0  0
  3  7  1  0  0  0  0
  3  8  1  0  0  0  0
  4 26  1  0  0  0  0
  6  9  1  0  0  0  0
  6 12  1  0  0  0  0
  8 10  1  0  0  0  0
  8 11  2  0  0  0  0
  9 13  1  0  0  0  0
  9 14  1  0  0  0  0
  9 15  1  0  0  0  0
 10 16  1  0  0  0  0
 10 17  1  0  0  0  0
 10 18  1  0  0  0  0
 19 20  1  0  0  0  0
 20 21  4  0  0  0  0
 20 25  4  0  0  0  0
 21 22  4  0  0  0  0
 21 26  1  0  0  0  0
 22 23  4  0  0  0  0
 22 27  1  0  0  0  0
 23 24  4  0  0  0  0
 23 28  1  0  0  0  0
 24 25  4  0  0  0  0
 24 29  1  0  0  0  0
 25 30  1  0  0  0  0
 26 31  1  0  0  0  0
 26 32  1  0  0  0  0
M  END
> <BCLConfClusterSize>
1

> <ConfClashScore>
0 

> <ConfOneFourInteractionScore>
-0.931937 

> <ConfScore>
-0.0484042 

> <ConfScorePBest>
0.00501424 

> <ConfTolerance>
0.285853 

> <RosettaParamsInstructions>
M  ROOT 3
M  POLY_N_BB 3
M  POLY_CA_BB 4
M  POLY_C_BB 2
M  POLY_O_BB 5
M  POLY_IGNORE 9 10 11 12 13 14 15 16 17 18 
M  POLY_UPPER 6
M  POLY_LOWER 8
M  POLY_CHG 0
M  POLY_PROPERTIES ALPHA_AA L_AA PROTEIN AROMATIC POLYMER 
M  END

$$$$



 32 32  0  0  0  0  0  0  0  0999 V2000
    0.4861    3.1354    0.4749 H   0  0  0  1  0  0  0  0  0  0  0  0
    0.5686    3.6009    2.5281 C   0  0  0  1  0  0  0  0  0  0  0  0
    0.6853    1.3772    1.5427 N   0  0  0  1  0  0  0  0  0  0  0  0
    0.1252    2.7115    1.3886 C   0  0  0  1  0  0  0  0  0  0  0  0
    0.8564    4.7824    2.3411 O   0  0  0  1  0  0  0  0  0  0  0  0
    0.6237    3.0201    3.7301 N   0  0  0  1  0  0  0  0  0  0  0  0
    0.0594    0.6238    1.5728 H   0  0  0  1  0  0  0  0  0  0  0  0
    1.9887    1.1020    1.6461 C   0  0  0  1  0  0  0  0  0  0  0  0
    0.8206    3.7253    4.9878 C   0  0  0  1  0  0  0  0  0  0  0  0
    2.3512   -0.3701    1.6697 C   0  0  0  1  0  0  0  0  0  0  0  0
    2.8468    1.9669    1.7182 O   0  0  0  1  0  0  0  0  0  0  0  0
    0.5241    2.0460    3.7676 H   0  0  0  1  0  0  0  0  0  0  0  0
    1.3782    4.6213    4.8114 H   0  0  0  1  0  0  0  0  0  0  0  0
    1.3591    3.0983    5.6674 H   0  0  0  1  0  0  0  0  0  0  0  0
   -0.1307    3.9746    5.4093 H   0  0  0  1  0  0  0  0  0  0  0  0
    1.5415   -0.9438    1.2696 H   0  0  0  1  0  0  0  0  0  0  0  0
    2.5398   -0.6746    2.6779 H   0  0  0  1  0  0  0  0  0  0  0  0
    3.2283   -0.5306    1.0781 H   0  0  0  1  0  0  0  0  0  0  0  0
   -4.1392    3.2984    1.5955 F   0  0  0  1  0  0  0  0  0  0  0  0
   -3.3303    4.3096    1.2252 C   0  0  0  1  0  0  0  0  0  0  0  0
   -1.9735    4.0909    1.0783 C   0  0  0  1  0  0  0  0  0  0  0  0
   -1.1416    5.1304    0.6920 C   0  0  0  1  0  0  0  0  0  0  0  0
   -1.6685    6.3867    0.4589 C   0  0  0  1  0  0  0  0  0  0  0  0
   -3.0292    6.6061    0.6062 C   0  0  0  1  0  0  0  0  0  0  0  0
   -3.8584    5.5697    0.9914 C   0  0  0  1  0  0  0  0  0  0  0  0
   -1.3970    2.7193    1.3387 C   0  0  0  1  0  0  0  0  0  0  0  0
   -0.1213    4.9649    0.5776 H   0  0  0  1  0  0  0  0  0  0  0  0
   -1.0439    7.1676    0.1730 H   0  0  0  1  0  0  0  0  0  0  0  0
   -3.4261    7.5505    0.4269 H   0  0  0  1  0  0  0  0  0  0  0  0
   -4.8787    5.7352    1.1058 H   0  0  0  1  0  0  0  0  0  0  0  0
   -1.7704    2.3655    2.2770 H   0  0  0  1  0  0  0  0  0  0  0  0
   -1.7155    2.0620    0.5568 H   0  0  0  1  0  0  0  0  0  0  0  0
  1  4  1  0  0  0  0
  2  4  1  0  0  0  0
  2  5  2  0  0  0  0
  2  6  1  0  0  0  0
  3  4  1  0  0  0  0
  3  7  1  0  0  0  0
  3  8  1  0  0  0  0
  4 26  1  0  0  0  0
  6  9  1  0  0  0  0
  6 12  1  0  0  0  0
  8 10  1  0  0  0  0
  8 11  2  0  0  0  0
  9 13  1  0  0  0  0
  9 14  1  0  0  0  0
  9 15  1  0  0  0  0
 10 16  1  0  0  0  0
 10 17  1  0  0  0  0
 10 18  1  0  0  0  0
 19 20  1  0  0  0  0
 20 21  4  0  0  0  0
 20 25  4  0  0  0  0
 21 22  4  0  0  0  0
 21 26  1  0  0  0  0
 22 23  4  0  0  0  0
 22 27  1  0  0  0  0
 23 24  4  0  0  0  0
 23 28  1  0  0  0  0
 24 25  4  0  0  0  0
 24 29  1  0  0  0  0
 25 30  1  0  0  0  0
 26 31  1  0  0  0  0
 26 32  1  0  0  0  0
M  END
> <BCLConfClusterSize>
1

> <ConfClashScore>
0 

> <ConfOneFourInteractionScore>
-0.952877 

> <ConfScore>
-0.0443039 

> <ConfScorePBest>
0.00498576 

> <ConfTolerance>
0.581637 

> <RosettaParamsInstructions>
M  ROOT 3
M  POLY_N_BB 3
M  POLY_CA_BB 4
M  POLY_C_BB 2
M  POLY_O_BB 5
M  POLY_IGNORE 9 10 11 12 13 14 15 16 17 18 
M  POLY_UPPER 6
M  POLY_LOWER 8
M  POLY_CHG 0
M  POLY_PROPERTIES ALPHA_AA L_AA PROTEIN AROMATIC POLYMER 
M  END

$$$$



 32 32  0  0  0  0  0  0  0  0999 V2000
   -2.8967    1.9004    2.5945 H   0  0  0  1  0  0  0  0  0  0  0  0
   -1.1159    0.8167    2.9131 C   0  0  0  1  0  0  0  0  0  0  0  0
   -1.6591    3.0992    3.7376 N   0  0  0  1  0  0  0  0  0  0  0  0
   -1.8526    2.1202    2.6737 C   0  0  0  1  0  0  0  0  0  0  0  0
   -0.0084    0.7982    3.4487 O   0  0  0  1  0  0  0  0  0  0  0  0
   -1.7489   -0.2939    2.5055 N   0  0  0  1  0  0  0  0  0  0  0  0
   -1.3594    3.9958    3.4792 H   0  0  0  1  0  0  0  0  0  0  0  0
   -1.8596    2.8656    5.0377 C   0  0  0  1  0  0  0  0  0  0  0  0
   -1.1452   -1.6142    2.6064 C   0  0  0  1  0  0  0  0  0  0  0  0
   -1.6046    4.0584    5.9564 C   0  0  0  1  0  0  0  0  0  0  0  0
   -2.1541    1.7631    5.4974 O   0  0  0  1  0  0  0  0  0  0  0  0
   -2.6490   -0.2131    2.1266 H   0  0  0  1  0  0  0  0  0  0  0  0
   -1.0568   -2.0422    1.6297 H   0  0  0  1  0  0  0  0  0  0  0  0
   -1.7608   -2.2419    3.2163 H   0  0  0  1  0  0  0  0  0  0  0  0
   -0.1740   -1.5293    3.0475 H   0  0  0  1  0  0  0  0  0  0  0  0
   -0.7188    3.8839    6.5306 H   0  0  0  1  0  0  0  0  0  0  0  0
   -2.4377    4.1849    6.6158 H   0  0  0  1  0  0  0  0  0  0  0  0
   -1.4786    4.9421    5.3664 H   0  0  0  1  0  0  0  0  0  0  0  0
   -4.1392    3.2983    1.5955 F   0  0  0  1  0  0  0  0  0  0  0  0
   -3.3303    4.3095    1.2252 C   0  0  0  1  0  0  0  0  0  0  0  0
   -1.9735    4.0910    1.0783 C   0  0  0  1  0  0  0  0  0  0  0  0
   -1.1417    5.1304    0.6920 C   0  0  0  1  0  0  0  0  0  0  0  0
   -1.6684    6.3867    0.4589 C   0  0  0  1  0  0  0  0  0  0  0  0
   -3.0292    6.6061    0.6062 C   0  0  0  1  0  0  0  0  0  0  0  0
   -3.8585    5.5697    0.9914 C   0  0  0  1  0  0  0  0  0  0  0  0
   -1.3970    2.7194    1.3387 C   0  0  0  1  0  0  0  0  0  0  0  0
   -0.1213    4.9649    0.5776 H   0  0  0  1  0  0  0  0  0  0  0  0
   -1.0438    7.1675    0.1730 H   0  0  0  1  0  0  0  0  0  0  0  0
   -3.4261    7.5506    0.4269 H   0  0  0  1  0  0  0  0  0  0  0  0
   -4.8788    5.7352    1.1058 H   0  0  0  1  0  0  0  0  0  0  0  0
   -1.7041    2.0654    0.5494 H   0  0  0  1  0  0  0  0  0  0  0  0
   -0.3296    2.7942    1.3455 H   0  0  0  1  0  0  0  0  0  0  0  0
  1  4  1  0  0  0  0
  2  4  1  0  0  0  0
  2  5  2  0  0  0  0
  2  6  1  0  0  0  0
  3  4  1  0  0  0  0
  3  7  1  0  0  0  0
  3  8  1  0  0  0  0
  4 26  1  0  0  0  0
  6  9  1  0  0  0  0
  6 12  1  0  0  0  0
  8 10  1  0  0  0  0
  8 11  2  0  0  0  0
  9 13  1  0  0  0  0
  9 14  1  0  0  0  0
  9 15  1  0  0  0  0
 10 16  1  0  0  0  0
 10 17  1  0  0  0  0
 10 18  1  0  0  0  0
 19 20  1  0  0  0  0
 20 21  4  0  0  0  0
 20 25  4  0  0  0  0
 21 22  4  0  0  0  0
 21 26  1  0  0  0  0
 22 23  4  0  0  0  0
 22 27  1  0  0  0  0
 23 24  4  0  0  0  0
 23 28  1  0  0  0  0
 24 25  4  0  0  0  0
 24 29  1  0  0  0  0
 25 30  1  0  0  0  0
 26 31  1  0  0  0  0
 26 32  1  0  0  0  0
M  END
> <BCLConfClusterSize>
1

> <ConfClashScore>
0 

> <ConfOneFourInteractionScore>
-0.985807 

> <ConfScore>
-0.0405593 

> <ConfScorePBest>
0.00495728 

> <ConfTolerance>
0.634999 

> <RosettaParamsInstructions>
M  ROOT 3
M  POLY_N_BB 3
M  POLY_CA_BB 4
M  POLY_C_BB 2
M  POLY_O_BB 5
M  POLY_IGNORE 9 10 11 12 13 14 15 16 17 18 
M  POLY_UPPER 6
M  POLY_LOWER 8
M  POLY_CHG 0
M  POLY_PROPERTIES ALPHA_AA L_AA PROTEIN AROMATIC POLYMER 
M  END

$$$$



 32 32  0  0  0  0  0  0  0  0999 V2000
   -1.1297    0.8704    0.2993 H   0  0  0  1  0  0  0  0  0  0  0  0
   -2.8857    1.8037   -0.4333 C   0  0  0  1  0  0  0  0  0  0  0  0
   -0.5799    2.4255   -0.9614 N   0  0  0  1  0  0  0  0  0  0  0  0
   -1.4523    1.8616    0.0579 C   0  0  0  1  0  0  0  0  0  0  0  0
   -3.6474    0.9264   -0.0614 O   0  0  0  1  0  0  0  0  0  0  0  0
   -3.2454    2.7646   -1.2858 N   0  0  0  1  0  0  0  0  0  0  0  0
   -0.0439    3.2157   -0.7408 H   0  0  0  1  0  0  0  0  0  0  0  0
   -0.4843    1.9041   -2.1855 C   0  0  0  1  0  0  0  0  0  0  0  0
   -4.6018    2.8796   -1.8002 C   0  0  0  1  0  0  0  0  0  0  0  0
    0.5947    2.4959   -3.0712 C   0  0  0  1  0  0  0  0  0  0  0  0
   -1.2148    1.0020   -2.5869 O   0  0  0  1  0  0  0  0  0  0  0  0
   -2.5728    3.4156   -1.5758 H   0  0  0  1  0  0  0  0  0  0  0  0
   -5.1102    1.9459   -1.6790 H   0  0  0  1  0  0  0  0  0  0  0  0
   -4.5687    3.1353   -2.8387 H   0  0  0  1  0  0  0  0  0  0  0  0
   -5.1240    3.6422   -1.2611 H   0  0  0  1  0  0  0  0  0  0  0  0
    0.1405    3.0110   -3.8918 H   0  0  0  1  0  0  0  0  0  0  0  0
    1.2193    1.7115   -3.4446 H   0  0  0  1  0  0  0  0  0  0  0  0
    1.1857    3.1830   -2.5023 H   0  0  0  1  0  0  0  0  0  0  0  0
   -4.1398    3.3019    1.6037 F   0  0  0  1  0  0  0  0  0  0  0  0
   -3.3319    4.3114    1.2268 C   0  0  0  1  0  0  0  0  0  0  0  0
   -1.9715    4.0914    1.0765 C   0  0  0  1  0  0  0  0  0  0  0  0
   -1.1416    5.1287    0.6948 C   0  0  0  1  0  0  0  0  0  0  0  0
   -1.6705    6.3878    0.4572 C   0  0  0  1  0  0  0  0  0  0  0  0
   -3.0268    6.6073    0.6071 C   0  0  0  1  0  0  0  0  0  0  0  0
   -3.8590    5.5669    0.9899 C   0  0  0  1  0  0  0  0  0  0  0  0
   -1.3961    2.7180    1.3297 C   0  0  0  1  0  0  0  0  0  0  0  0
   -0.1204    4.9646    0.5860 H   0  0  0  1  0  0  0  0  0  0  0  0
   -1.0467    7.1673    0.1662 H   0  0  0  1  0  0  0  0  0  0  0  0
   -3.4230    7.5529    0.4327 H   0  0  0  1  0  0  0  0  0  0  0  0
   -4.8802    5.7311    1.0987 H   0  0  0  1  0  0  0  0  0  0  0  0
   -0.3774    2.8165    1.6417 H   0  0  0  1  0  0  0  0  0  0  0  0
   -1.9610    2.2378    2.1012 H   0  0  0  1  0  0  0  0  0  0  0  0
  1  4  1  0  0  0  0
  2  4  1  0  0  0  0
  2  5  2  0  0  0  0
  2  6  1  0  0  0  0
  3  4  1  0  0  0  0
  3  7  1  0  0  0  0
  3  8  1  0  0  0  0
  4 26  1  0  0  0  0
  6  9  1  0  0  0  0
  6 12  1  0  0  0  0
  8 10  1  0  0  0  0
  8 11  2  0  0  0  0
  9 13  1  0  0  0  0
  9 14  1  0  0  0  0
  9 15  1  0  0  0  0
 10 16  1  0  0  0  0
 10 17  1  0  0  0  0
 10 18  1  0  0  0  0
 19 20  1  0  0  0  0
 20 21  4  0  0  0  0
 20 25  4  0  0  0  0
 21 22  4  0  0  0  0
 21 26  1  0  0  0  0
 22 23  4  0  0  0  0
 22 27  1  0  0  0  0
 23 24  4  0  0  0  0
 23 28  1  0  0  0  0
 24 25  4  0  0  0  0
 24 29  1  0  0  0  0
 25 30  1  0  0  0  0
 26 31  1  0  0  0  0
 26 32  1  0  0  0  0
M  END
> <BCLConfClusterSize>
1

> <ConfClashScore>
0 

> <ConfOneFourInteractionScore>
-0.957074 

> <ConfScore>
-0.0398252 

> <ConfScorePBest>
0.0049288 

> <ConfTolerance>
0.412314 

> <RosettaParamsInstructions>
M  ROOT 3
M  POLY_N_BB 3
M  POLY_CA_BB 4
M  POLY_C_BB 2
M  POLY_O_BB 5
M  POLY_IGNORE 9 10 11 12 13 14 15 16 17 18 
M  POLY_UPPER 6
M  POLY_LOWER 8
M  POLY_CHG 0
M  POLY_PROPERTIES ALPHA_AA L_AA PROTEIN AROMATIC POLYMER 
M  END

$$$$



 32 32  0  0  0  0  0  0  0  0999 V2000
   -0.0482    3.0704    2.9035 H   0  0  0  1  0  0  0  0  0  0  0  0
   -1.9564    2.8954    3.7652 C   0  0  0  1  0  0  0  0  0  0  0  0
   -0.5288    1.0698    2.9025 N   0  0  0  1  0  0  0  0  0  0  0  0
   -0.9164    2.4642    2.7495 C   0  0  0  1  0  0  0  0  0  0  0  0
   -3.0425    2.3235    3.8489 O   0  0  0  1  0  0  0  0  0  0  0  0
   -1.6134    3.9208    4.5463 N   0  0  0  1  0  0  0  0  0  0  0  0
   -1.1416    0.3717    2.5904 H   0  0  0  1  0  0  0  0  0  0  0  0
    0.6773    0.6948    3.4744 C   0  0  0  1  0  0  0  0  0  0  0  0
   -2.4886    4.5551    5.5207 C   0  0  0  1  0  0  0  0  0  0  0  0
    0.9759   -0.7668    3.6570 C   0  0  0  1  0  0  0  0  0  0  0  0
    1.4595    1.5681    3.8119 O   0  0  0  1  0  0  0  0  0  0  0  0
   -0.7034    4.2736    4.4572 H   0  0  0  1  0  0  0  0  0  0  0  0
   -3.1039    3.8128    5.9847 H   0  0  0  1  0  0  0  0  0  0  0  0
   -3.1085    5.2746    5.0279 H   0  0  0  1  0  0  0  0  0  0  0  0
   -1.8969    5.0442    6.2661 H   0  0  0  1  0  0  0  0  0  0  0  0
    1.9647   -0.8831    4.0490 H   0  0  0  1  0  0  0  0  0  0  0  0
    0.9058   -1.2656    2.7130 H   0  0  0  1  0  0  0  0  0  0  0  0
    0.2698   -1.1924    4.3391 H   0  0  0  1  0  0  0  0  0  0  0  0
   -4.1397    3.3020    1.6037 F   0  0  0  1  0  0  0  0  0  0  0  0
   -3.3318    4.3115    1.2268 C   0  0  0  1  0  0  0  0  0  0  0  0
   -1.9715    4.0913    1.0765 C   0  0  0  1  0  0  0  0  0  0  0  0
   -1.1417    5.1287    0.6949 C   0  0  0  1  0  0  0  0  0  0  0  0
   -1.6705    6.3878    0.4572 C   0  0  0  1  0  0  0  0  0  0  0  0
   -3.0268    6.6072    0.6071 C   0  0  0  1  0  0  0  0  0  0  0  0
   -3.8591    5.5669    0.9899 C   0  0  0  1  0  0  0  0  0  0  0  0
   -1.3961    2.7179    1.3298 C   0  0  0  1  0  0  0  0  0  0  0  0
   -0.1205    4.9646    0.5860 H   0  0  0  1  0  0  0  0  0  0  0  0
   -1.0466    7.1674    0.1662 H   0  0  0  1  0  0  0  0  0  0  0  0
   -3.4229    7.5528    0.4327 H   0  0  0  1  0  0  0  0  0  0  0  0
   -4.8803    5.7311    1.0987 H   0  0  0  1  0  0  0  0  0  0  0  0
   -2.1527    1.9961    1.1031 H   0  0  0  1  0  0  0  0  0  0  0  0
   -0.5640    2.5820    0.6709 H   0  0  0  1  0  0  0  0  0  0  0  0
  1  4  1  0  0  0  0
  2  4  1  0  0  0  0
  2  5  2  0  0  0  0
  2  6  1  0  0  0  0
  3  4  1  0  0  0  0
  3  7  1  0  0  0  0
  3  8  1  0  0  0  0
  4 26  1  0  0  0  0
  6  9  1  0  0  0  0
  6 12  1  0  0  0  0
  8 10  1  0  0  0  0
  8 11  2  0  0  0  0
  9 13  1  0  0  0  0
  9 14  1  0  0  0  0
  9 15  1  0  0  0  0
 10 16  1  0  0  0  0
 10 17  1  0  0  0  0
 10 18  1  0  0  0  0
 19 20  1  0  0  0  0
 20 21  4  0  0  0  0
 20 25  4  0  0  0  0
 21 22  4  0  0  0  0
 21 26  1  0  0  0  0
 22 23  4  0  0  0  0
 22 27  1  0  0  0  0
 23 24  4  0  0  0  0
 23 28  1  0  0  0  0
 24 25  4  0  0  0  0
 24 29  1  0  0  0  0
 25 30  1  0  0  0  0
 26 31  1  0  0  0  0
 26 32  1  0  0  0  0
M  END
> <BCLConfClusterSize>
1

> <ConfClashScore>
0 

> <ConfOneFourInteractionScore>
-0.981931 

> <ConfScore>
-0.0384655 

> <ConfScorePBest>
0.00490032 

> <ConfTolerance>
0.301552 

> <RosettaParamsInstructions>
M  ROOT 3
M  POLY_N_BB 3
M  POLY_CA_BB 4
M  POLY_C_BB 2
M  POLY_O_BB 5
M  POLY_IGNORE 9 10 11 12 13 14 15 16 17 18 
M  POLY_UPPER 6
M  POLY_LOWER 8
M  POLY_CHG 0
M  POLY_PROPERTIES ALPHA_AA L_AA PROTEIN AROMATIC POLYMER 
M  END

$$$$



 32 32  0  0  0  0  0  0  0  0999 V2000
   -1.9442    1.9849   -0.6017 H   0  0  0  1  0  0  0  0  0  0  0  0
    0.0929    2.5992   -0.6573 C   0  0  0  1  0  0  0  0  0  0  0  0
   -0.7852    0.5711    0.3970 N   0  0  0  1  0  0  0  0  0  0  0  0
   -1.0894    1.9489    0.0410 C   0  0  0  1  0  0  0  0  0  0  0  0
    1.2498    2.2888   -0.3766 O   0  0  0  1  0  0  0  0  0  0  0  0
   -0.2108    3.5155   -1.5810 N   0  0  0  1  0  0  0  0  0  0  0  0
   -0.7818    0.3394    1.3493 H   0  0  0  1  0  0  0  0  0  0  0  0
   -0.5103   -0.4018   -0.4764 C   0  0  0  1  0  0  0  0  0  0  0  0
    0.8106    4.2505   -2.3120 C   0  0  0  1  0  0  0  0  0  0  0  0
   -0.2577   -1.7721    0.1218 C   0  0  0  1  0  0  0  0  0  0  0  0
   -0.4608   -0.2167   -1.6917 O   0  0  0  1  0  0  0  0  0  0  0  0
   -1.1541    3.6990   -1.7729 H   0  0  0  1  0  0  0  0  0  0  0  0
    1.7374    4.1993   -1.7796 H   0  0  0  1  0  0  0  0  0  0  0  0
    0.5121    5.2733   -2.4102 H   0  0  0  1  0  0  0  0  0  0  0  0
    0.9333    3.8194   -3.2835 H   0  0  0  1  0  0  0  0  0  0  0  0
   -1.0515   -2.0197    0.7950 H   0  0  0  1  0  0  0  0  0  0  0  0
    0.6709   -1.7632    0.6534 H   0  0  0  1  0  0  0  0  0  0  0  0
   -0.2141   -2.5002   -0.6611 H   0  0  0  1  0  0  0  0  0  0  0  0
   -4.1398    3.3019    1.6037 F   0  0  0  1  0  0  0  0  0  0  0  0
   -3.3319    4.3114    1.2268 C   0  0  0  1  0  0  0  0  0  0  0  0
   -1.9716    4.0914    1.0765 C   0  0  0  1  0  0  0  0  0  0  0  0
   -1.1416    5.1287    0.6948 C   0  0  0  1  0  0  0  0  0  0  0  0
   -1.6705    6.3878    0.4572 C   0  0  0  1  0  0  0  0  0  0  0  0
   -3.0268    6.6073    0.6071 C   0  0  0  1  0  0  0  0  0  0  0  0
   -3.8590    5.5669    0.9899 C   0  0  0  1  0  0  0  0  0  0  0  0
   -1.3962    2.7180    1.3297 C   0  0  0  1  0  0  0  0  0  0  0  0
   -0.1204    4.9645    0.5860 H   0  0  0  1  0  0  0  0  0  0  0  0
   -1.0467    7.1674    0.1662 H   0  0  0  1  0  0  0  0  0  0  0  0
   -3.4230    7.5529    0.4327 H   0  0  0  1  0  0  0  0  0  0  0  0
   -4.8802    5.7310    1.0987 H   0  0  0  1  0  0  0  0  0  0  0  0
   -0.4886    2.8263    1.8860 H   0  0  0  1  0  0  0  0  0  0  0  0
   -2.1015    2.1538    1.9034 H   0  0  0  1  0  0  0  0  0  0  0  0
  1  4  1  0  0  0  0
  2  4  1  0  0  0  0
  2  5  2  0  0  0  0
  2  6  1  0  0  0  0
  3  4  1  0  0  0  0
  3  7  1  0  0  0  0
  3  8  1  0  0  0  0
  4 26  1  0  0  0  0
  6  9  1  0  0  0  0
  6 12  1  0  0  0  0
  8 10  1  0  0  0  0
  8 11  2  0  0  0  0
  9 13  1  0  0  0  0
  9 14  1  0  0  0  0
  9 15  1  0  0  0  0
 10 16  1  0  0  0  0
 10 17  1  0  0  0  0
 10 18  1  0  0  0  0
 19 20  1  0  0  0  0
 20 21  4  0  0  0  0
 20 25  4  0  0  0  0
 21 22  4  0  0  0  0
 21 26  1  0  0  0  0
 22 23  4  0  0  0  0
 22 27  1  0  0  0  0
 23 24  4  0  0  0  0
 23 28  1  0  0  0  0
 24 25  4  0  0  0  0
 24 29  1  0  0  0  0
 25 30  1  0  0  0  0
 26 31  1  0  0  0  0
 26 32  1  0  0  0  0
M  END
> <BCLConfClusterSize>
1

> <ConfClashScore>
0 

> <ConfOneFourInteractionScore>
-0.978127 

> <ConfScore>
-0.0372509 

> <ConfScorePBest>
0.00487184 

> <ConfTolerance>
0.293955 

> <RosettaParamsInstructions>
M  ROOT 3
M  POLY_N_BB 3
M  POLY_CA_BB 4
M  POLY_C_BB 2
M  POLY_O_BB 5
M  POLY_IGNORE 9 10 11 12 13 14 15 16 17 18 
M  POLY_UPPER 6
M  POLY_LOWER 8
M  POLY_CHG 0
M  POLY_PROPERTIES ALPHA_AA L_AA PROTEIN AROMATIC POLYMER 
M  END

$$$$



 32 32  0  0  0  0  0  0  0  0999 V2000
   -0.4844    1.4394    2.7046 H   0  0  0  1  0  0  0  0  0  0  0  0
   -0.0019    3.3946    3.3100 C   0  0  0  1  0  0  0  0  0  0  0  0
   -2.1414    2.2185    3.6258 N   0  0  0  1  0  0  0  0  0  0  0  0
   -0.9948    2.3789    2.7461 C   0  0  0  1  0  0  0  0  0  0  0  0
   -0.3861    4.3131    4.0150 O   0  0  0  1  0  0  0  0  0  0  0  0
    1.2861    3.1314    3.0379 N   0  0  0  1  0  0  0  0  0  0  0  0
   -2.6153    3.0083    3.9605 H   0  0  0  1  0  0  0  0  0  0  0  0
   -2.5522    0.9906    3.9805 C   0  0  0  1  0  0  0  0  0  0  0  0
    2.3745    3.9292    3.5826 C   0  0  0  1  0  0  0  0  0  0  0  0
   -3.7270    0.9400    4.9378 C   0  0  0  1  0  0  0  0  0  0  0  0
   -2.0218   -0.0391    3.5657 O   0  0  0  1  0  0  0  0  0  0  0  0
    1.5008    2.3757    2.4521 H   0  0  0  1  0  0  0  0  0  0  0  0
    1.9964    4.5734    4.3487 H   0  0  0  1  0  0  0  0  0  0  0  0
    2.8087    4.5194    2.8028 H   0  0  0  1  0  0  0  0  0  0  0  0
    3.1186    3.2814    3.9968 H   0  0  0  1  0  0  0  0  0  0  0  0
   -4.5126    0.3539    4.5085 H   0  0  0  1  0  0  0  0  0  0  0  0
   -4.0818    1.9331    5.1194 H   0  0  0  1  0  0  0  0  0  0  0  0
   -3.4158    0.4975    5.8609 H   0  0  0  1  0  0  0  0  0  0  0  0
   -4.1397    3.3020    1.6037 F   0  0  0  1  0  0  0  0  0  0  0  0
   -3.3318    4.3115    1.2268 C   0  0  0  1  0  0  0  0  0  0  0  0
   -1.9715    4.0913    1.0765 C   0  0  0  1  0  0  0  0  0  0  0  0
   -1.1417    5.1287    0.6949 C   0  0  0  1  0  0  0  0  0  0  0  0
   -1.6705    6.3878    0.4572 C   0  0  0  1  0  0  0  0  0  0  0  0
   -3.0268    6.6072    0.6071 C   0  0  0  1  0  0  0  0  0  0  0  0
   -3.8591    5.5669    0.9899 C   0  0  0  1  0  0  0  0  0  0  0  0
   -1.3961    2.7179    1.3298 C   0  0  0  1  0  0  0  0  0  0  0  0
   -0.1205    4.9646    0.5860 H   0  0  0  1  0  0  0  0  0  0  0  0
   -1.0466    7.1674    0.1662 H   0  0  0  1  0  0  0  0  0  0  0  0
   -3.4229    7.5528    0.4327 H   0  0  0  1  0  0  0  0  0  0  0  0
   -4.8803    5.7311    1.0987 H   0  0  0  1  0  0  0  0  0  0  0  0
   -2.1305    2.0019    1.0250 H   0  0  0  1  0  0  0  0  0  0  0  0
   -0.5243    2.6181    0.7174 H   0  0  0  1  0  0  0  0  0  0  0  0
  1  4  1  0  0  0  0
  2  4  1  0  0  0  0
  2  5  2  0  0  0  0
  2  6  1  0  0  0  0
  3  4  1  0  0  0  0
  3  7  1  0  0  0  0
  3  8  1  0  0  0  0
  4 26  1  0  0  0  0
  6  9  1  0  0  0  0
  6 12  1  0  0  0  0
  8 10  1  0  0  0  0
  8 11  2  0  0  0  0
  9 13  1  0  0  0  0
  9 14  1  0  0  0  0
  9 15  1  0  0  0  0
 10 16  1  0  0  0  0
 10 17  1  0  0  0  0
 10 18  1  0  0  0  0
 19 20  1  0  0  0  0
 20 21  4  0  0  0  0
 20 25  4  0  0  0  0
 21 22  4  0  0  0  0
 21 26  1  0  0  0  0
 22 23  4  0  0  0  0
 22 27  1  0  0  0  0
 23 24  4  0  0  0  0
 23 28  1  0  0  0  0
 24 25  4  0  0  0  0
 24 29  1  0  0  0  0
 25 30  1  0  0  0  0
 26 31  1  0  0  0  0
 26 32  1  0  0  0  0
M  END
> <BCLConfClusterSize>
1

> <ConfClashScore>
0 

> <ConfOneFourInteractionScore>
-0.987258 

> <ConfScore>
-0.0371526 

> <ConfScorePBest>
0.00484336 

> <ConfTolerance>
0.453792 

> <RosettaParamsInstructions>
M  ROOT 3
M  POLY_N_BB 3
M  POLY_CA_BB 4
M  POLY_C_BB 2
M  POLY_O_BB 5
M  POLY_IGNORE 9 10 11 12 13 14 15 16 17 18 
M  POLY_UPPER 6
M  POLY_LOWER 8
M  POLY_CHG 0
M  POLY_PROPERTIES ALPHA_AA L_AA PROTEIN AROMATIC POLYMER 
M  END

$$$$



 32 32  0  0  0  0  0  0  0  0999 V2000
   -2.2536    1.6121   -0.2563 H   0  0  0  1  0  0  0  0  0  0  0  0
   -0.6071    2.6253   -1.0941 C   0  0  0  1  0  0  0  0  0  0  0  0
   -0.5191    0.6552    0.3065 N   0  0  0  1  0  0  0  0  0  0  0  0
   -1.2651    1.8778    0.0553 C   0  0  0  1  0  0  0  0  0  0  0  0
    0.6080    2.8175   -1.1084 O   0  0  0  1  0  0  0  0  0  0  0  0
   -1.3872    3.0659   -2.0852 N   0  0  0  1  0  0  0  0  0  0  0  0
    0.3543    0.7161    0.7470 H   0  0  0  1  0  0  0  0  0  0  0  0
   -0.9867   -0.5584   -0.0452 C   0  0  0  1  0  0  0  0  0  0  0  0
   -0.8449    3.6930   -3.2813 C   0  0  0  1  0  0  0  0  0  0  0  0
   -0.0455   -1.6969    0.2971 C   0  0  0  1  0  0  0  0  0  0  0  0
   -2.0696   -0.7597   -0.5933 O   0  0  0  1  0  0  0  0  0  0  0  0
   -2.3584    2.9632   -2.0040 H   0  0  0  1  0  0  0  0  0  0  0  0
    0.0252    3.1588   -3.6014 H   0  0  0  1  0  0  0  0  0  0  0  0
   -0.5807    4.7068   -3.0636 H   0  0  0  1  0  0  0  0  0  0  0  0
   -1.5804    3.6744   -4.0582 H   0  0  0  1  0  0  0  0  0  0  0  0
    0.1494   -2.2757   -0.5815 H   0  0  0  1  0  0  0  0  0  0  0  0
   -0.4955   -2.3197    1.0418 H   0  0  0  1  0  0  0  0  0  0  0  0
    0.8739   -1.2986    0.6726 H   0  0  0  1  0  0  0  0  0  0  0  0
   -4.1397    3.3020    1.6037 F   0  0  0  1  0  0  0  0  0  0  0  0
   -3.3318    4.3116    1.2268 C   0  0  0  1  0  0  0  0  0  0  0  0
   -1.9715    4.0913    1.0765 C   0  0  0  1  0  0  0  0  0  0  0  0
   -1.1417    5.1287    0.6949 C   0  0  0  1  0  0  0  0  0  0  0  0
   -1.6704    6.3879    0.4572 C   0  0  0  1  0  0  0  0  0  0  0  0
   -3.0268    6.6072    0.6071 C   0  0  0  1  0  0  0  0  0  0  0  0
   -3.8591    5.5669    0.9899 C   0  0  0  1  0  0  0  0  0  0  0  0
   -1.3962    2.7179    1.3298 C   0  0  0  1  0  0  0  0  0  0  0  0
   -0.1205    4.9645    0.5860 H   0  0  0  1  0  0  0  0  0  0  0  0
   -1.0466    7.1674    0.1661 H   0  0  0  1  0  0  0  0  0  0  0  0
   -3.4230    7.5528    0.4327 H   0  0  0  1  0  0  0  0  0  0  0  0
   -4.8803    5.7310    1.0988 H   0  0  0  1  0  0  0  0  0  0  0  0
   -0.4251    2.8304    1.7649 H   0  0  0  1  0  0  0  0  0  0  0  0
   -2.0365    2.2013    2.0139 H   0  0  0  1  0  0  0  0  0  0  0  0
  1  4  1  0  0  0  0
  2  4  1  0  0  0  0
  2  5  2  0  0  0  0
  2  6  1  0  0  0  0
  3  4  1  0  0  0  0
  3  7  1  0  0  0  0
  3  8  1  0  0  0  0
  4 26  1  0  0  0  0
  6  9  1  0  0  0  0
  6 12  1  0  0  0  0
  8 10  1  0  0  0  0
  8 11  2  0  0  0  0
  9 13  1  0  0  0  0
  9 14  1  0  0  0  0
  9 15  1  0  0  0  0
 10 16  1  0  0  0  0
 10 17  1  0  0  0  0
 10 18  1  0  0  0  0
 19 20  1  0  0  0  0
 20 21  4  0  0  0  0
 20 25  4  0  0  0  0
 21 22  4  0  0  0  0
 21 26  1  0  0  0  0
 22 23  4  0  0  0  0
 22 27  1  0  0  0  0
 23 24  4  0  0  0  0
 23 28  1  0  0  0  0
 24 25  4  0  0  0  0
 24 29  1  0  0  0  0
 25 30  1  0  0  0  0
 26 31  1  0  0  0  0
 26 32  1  0  0  0  0
M  END
> <BCLConfClusterSize>
1

> <ConfClashScore>
0 

> <ConfOneFourInteractionScore>
-0.981931 

> <ConfScore>
-0.036395 

> <ConfScorePBest>
0.00481488 

> <ConfTolerance>
0.316439 

> <RosettaParamsInstructions>
M  ROOT 3
M  POLY_N_BB 3
M  POLY_CA_BB 4
M  POLY_C_BB 2
M  POLY_O_BB 5
M  POLY_IGNORE 9 10 11 12 13 14 15 16 17 18 
M  POLY_UPPER 6
M  POLY_LOWER 8
M  POLY_CHG 0
M  POLY_PROPERTIES ALPHA_AA L_AA PROTEIN AROMATIC POLYMER 
M  END

$$$$



 32 32  0  0  0  0  0  0  0  0999 V2000
   -2.5059    1.5877   -0.0354 H   0  0  0  1  0  0  0  0  0  0  0  0
   -1.0021    2.5064   -1.1507 C   0  0  0  1  0  0  0  0  0  0  0  0
   -0.8001    0.5380    0.3603 N   0  0  0  1  0  0  0  0  0  0  0  0
   -1.4688    1.8063    0.1108 C   0  0  0  1  0  0  0  0  0  0  0  0
   -1.7835    3.1494   -1.8504 O   0  0  0  1  0  0  0  0  0  0  0  0
    0.2935    2.3760   -1.4404 N   0  0  0  1  0  0  0  0  0  0  0  0
    0.0450    0.5547    0.8561 H   0  0  0  1  0  0  0  0  0  0  0  0
   -1.2691   -0.6576   -0.0468 C   0  0  0  1  0  0  0  0  0  0  0  0
    0.8514    2.8002   -2.7157 C   0  0  0  1  0  0  0  0  0  0  0  0
   -0.3662   -1.8212    0.3138 C   0  0  0  1  0  0  0  0  0  0  0  0
   -2.3251   -0.8253   -0.6553 O   0  0  0  1  0  0  0  0  0  0  0  0
    0.8903    1.9807   -0.7710 H   0  0  0  1  0  0  0  0  0  0  0  0
    0.2118    2.4776   -3.5105 H   0  0  0  1  0  0  0  0  0  0  0  0
    1.8221    2.3678   -2.8416 H   0  0  0  1  0  0  0  0  0  0  0  0
    0.9308    3.8671   -2.7328 H   0  0  0  1  0  0  0  0  0  0  0  0
    0.5839   -1.6970   -0.1624 H   0  0  0  1  0  0  0  0  0  0  0  0
   -0.8137   -2.7353   -0.0166 H   0  0  0  1  0  0  0  0  0  0  0  0
   -0.2317   -1.8525    1.3748 H   0  0  0  1  0  0  0  0  0  0  0  0
   -4.1398    3.3019    1.6037 F   0  0  0  1  0  0  0  0  0  0  0  0
   -3.3319    4.3114    1.2268 C   0  0  0  1  0  0  0  0  0  0  0  0
   -1.9716    4.0914    1.0765 C   0  0  0  1  0  0  0  0  0  0  0  0
   -1.1416    5.1287    0.6948 C   0  0  0  1  0  0  0  0  0  0  0  0
   -1.6705    6.3878    0.4572 C   0  0  0  1  0  0  0  0  0  0  0  0
   -3.0268    6.6073    0.6071 C   0  0  0  1  0  0  0  0  0  0  0  0
   -3.8590    5.5669    0.9899 C   0  0  0  1  0  0  0  0  0  0  0  0
   -1.3962    2.7180    1.3297 C   0  0  0  1  0  0  0  0  0  0  0  0
   -0.1204    4.9645    0.5860 H   0  0  0  1  0  0  0  0  0  0  0  0
   -1.0467    7.1674    0.1662 H   0  0  0  1  0  0  0  0  0  0  0  0
   -3.4230    7.5529    0.4327 H   0  0  0  1  0  0  0  0  0  0  0  0
   -4.8802    5.7310    1.0987 H   0  0  0  1  0  0  0  0  0  0  0  0
   -0.3703    2.8257    1.6140 H   0  0  0  1  0  0  0  0  0  0  0  0
   -1.9423    2.2621    2.1290 H   0  0  0  1  0  0  0  0  0  0  0  0
  1  4  1  0  0  0  0
  2  4  1  0  0  0  0
  2  5  2  0  0  0  0
  2  6  1  0  0  0  0
  3  4  1  0  0  0  0
  3  7  1  0  0  0  0
  3  8  1  0  0  0  0
  4 26  1  0  0  0  0
  6  9  1  0  0  0  0
  6 12  1  0  0  0  0
  8 10  1  0  0  0  0
  8 11  2  0  0  0  0
  9 13  1  0  0  0  0
  9 14  1  0  0  0  0
  9 15  1  0  0  0  0
 10 16  1  0  0  0  0
 10 17  1  0  0  0  0
 10 18  1  0  0  0  0
 19 20  1  0  0  0  0
 20 21  4  0  0  0  0
 20 25  4  0  0  0  0
 21 22  4  0  0  0  0
 21 26  1  0  0  0  0
 22 23  4  0  0  0  0
 22 27  1  0  0  0  0
 23 24  4  0  0  0  0
 23 28  1  0  0  0  0
 24 25  4  0  0  0  0
 24 29  1  0  0  0  0
 25 30  1  0  0  0  0
 26 31  1  0  0  0  0
 26 32  1  0  0  0  0
M  END
> <BCLConfClusterSize>
1

> <ConfClashScore>
0 

> <ConfOneFourInteractionScore>
-0.960318 

> <ConfScore>
-0.0179192 

> <ConfScorePBest>
0.00478639 

> <ConfTolerance>
0.483386 

> <RosettaParamsInstructions>
M  ROOT 3
M  POLY_N_BB 3
M  POLY_CA_BB 4
M  POLY_C_BB 2
M  POLY_O_BB 5
M  POLY_IGNORE 9 10 11 12 13 14 15 16 17 18 
M  POLY_UPPER 6
M  POLY_LOWER 8
M  POLY_CHG 0
M  POLY_PROPERTIES ALPHA_AA L_AA PROTEIN AROMATIC POLYMER 
M  END

$$$$



 32 32  0  0  0  0  0  0  0  0999 V2000
   -2.9838    1.4540    0.7180 H   0  0  0  1  0  0  0  0  0  0  0  0
   -1.9923    2.1239   -1.0240 C   0  0  0  1  0  0  0  0  0  0  0  0
   -1.2130    0.4063    0.5214 N   0  0  0  1  0  0  0  0  0  0  0  0
   -1.9743    1.6408    0.4166 C   0  0  0  1  0  0  0  0  0  0  0  0
   -0.9729    2.1823   -1.6917 O   0  0  0  1  0  0  0  0  0  0  0  0
   -3.2182    2.4681   -1.4644 N   0  0  0  1  0  0  0  0  0  0  0  0
   -0.2870    0.3931    0.2009 H   0  0  0  1  0  0  0  0  0  0  0  0
   -1.7321   -0.7105    1.0393 C   0  0  0  1  0  0  0  0  0  0  0  0
   -3.3988    2.9384   -2.8298 C   0  0  0  1  0  0  0  0  0  0  0  0
   -0.8257   -1.9161    1.1948 C   0  0  0  1  0  0  0  0  0  0  0  0
   -2.9035   -0.8204    1.3987 O   0  0  0  1  0  0  0  0  0  0  0  0
   -3.9899    2.4016   -0.8641 H   0  0  0  1  0  0  0  0  0  0  0  0
   -2.5101    3.4369   -3.1563 H   0  0  0  1  0  0  0  0  0  0  0  0
   -4.2232    3.6194   -2.8661 H   0  0  0  1  0  0  0  0  0  0  0  0
   -3.5957    2.1046   -3.4708 H   0  0  0  1  0  0  0  0  0  0  0  0
   -0.3660   -2.1409    0.2551 H   0  0  0  1  0  0  0  0  0  0  0  0
   -1.4030   -2.7566    1.5192 H   0  0  0  1  0  0  0  0  0  0  0  0
   -0.0685   -1.7017    1.9198 H   0  0  0  1  0  0  0  0  0  0  0  0
   -4.1390    3.2984    1.5955 F   0  0  0  1  0  0  0  0  0  0  0  0
   -3.3302    4.3097    1.2252 C   0  0  0  1  0  0  0  0  0  0  0  0
   -1.9734    4.0909    1.0783 C   0  0  0  1  0  0  0  0  0  0  0  0
   -1.1418    5.1304    0.6920 C   0  0  0  1  0  0  0  0  0  0  0  0
   -1.6684    6.3868    0.4589 C   0  0  0  1  0  0  0  0  0  0  0  0
   -3.0292    6.6061    0.6062 C   0  0  0  1  0  0  0  0  0  0  0  0
   -3.8585    5.5697    0.9914 C   0  0  0  1  0  0  0  0  0  0  0  0
   -1.3970    2.7192    1.3387 C   0  0  0  1  0  0  0  0  0  0  0  0
   -0.1214    4.9648    0.5776 H   0  0  0  1  0  0  0  0  0  0  0  0
   -1.0437    7.1676    0.1729 H   0  0  0  1  0  0  0  0  0  0  0  0
   -3.4261    7.5505    0.4269 H   0  0  0  1  0  0  0  0  0  0  0  0
   -4.8789    5.7352    1.1058 H   0  0  0  1  0  0  0  0  0  0  0  0
   -0.3379    2.7615    1.1921 H   0  0  0  1  0  0  0  0  0  0  0  0
   -1.6068    2.4485    2.3524 H   0  0  0  1  0  0  0  0  0  0  0  0
  1  4  1  0  0  0  0
  2  4  1  0  0  0  0
  2  5  2  0  0  0  0
  2  6  1  0  0  0  0
  3  4  1  0  0  0  0
  3  7  1  0  0  0  0
  3  8  1  0  0  0  0
  4 26  1  0  0  0  0
  6  9  1  0  0  0  0
  6 12  1  0  0  0  0
  8 10  1  0  0  0  0
  8 11  2  0  0  0  0
  9 13  1  0  0  0  0
  9 14  1  0  0  0  0
  9 15  1  0  0  0  0
 10 16  1  0  0  0  0
 10 17  1  0  0  0  0
 10 18  1  0  0  0  0
 19 20  1  0  0  0  0
 20 21  4  0  0  0  0
 20 25  4  0  0  0  0
 21 22  4  0  0  0  0
 21 26  1  0  0  0  0
 22 23  4  0  0  0  0
 22 27  1  0  0  0  0
 23 24  4  0  0  0  0
 23 28  1  0  0  0  0
 24 25  4  0  0  0  0
 24 29  1  0  0  0  0
 25 30  1  0  0  0  0
 26 31  1  0  0  0  0
 26 32  1  0  0  0  0
M  END
> <BCLConfClusterSize>
1

> <ConfClashScore>
0 

> <ConfOneFourInteractionScore>
-0.990503 

> <ConfScore>
-0.0168897 

> <ConfScorePBest>
0.00475791 

> <ConfTolerance>
0.364269 

> <RosettaParamsInstructions>
M  ROOT 3
M  POLY_N_BB 3
M  POLY_CA_BB 4
M  POLY_C_BB 2
M  POLY_O_BB 5
M  POLY_IGNORE 9 10 11 12 13 14 15 16 17 18 
M  POLY_UPPER 6
M  POLY_LOWER 8
M  POLY_CHG 0
M  POLY_PROPERTIES ALPHA_AA L_AA PROTEIN AROMATIC POLYMER 
M  END

$$$$



 32 32  0  0  0  0  0  0  0  0999 V2000
   -2.7181    1.7439    0.0033 H   0  0  0  1  0  0  0  0  0  0  0  0
   -0.9760    2.1808   -1.0920 C   0  0  0  1  0  0  0  0  0  0  0  0
   -1.2834    0.3869    0.5901 N   0  0  0  1  0  0  0  0  0  0  0  0
   -1.6641    1.7363    0.1879 C   0  0  0  1  0  0  0  0  0  0  0  0
    0.1908    1.9170   -1.3315 O   0  0  0  1  0  0  0  0  0  0  0  0
   -1.6690    2.8859   -1.9907 N   0  0  0  1  0  0  0  0  0  0  0  0
   -0.9437    0.2646    1.5012 H   0  0  0  1  0  0  0  0  0  0  0  0
   -1.3637   -0.7040   -0.1964 C   0  0  0  1  0  0  0  0  0  0  0  0
   -1.1056    3.2765   -3.2744 C   0  0  0  1  0  0  0  0  0  0  0  0
   -0.8768   -1.9843    0.4784 C   0  0  0  1  0  0  0  0  0  0  0  0
   -1.7842   -0.7042   -1.3527 O   0  0  0  1  0  0  0  0  0  0  0  0
   -2.5887    3.1493   -1.7780 H   0  0  0  1  0  0  0  0  0  0  0  0
   -0.0386    3.2097   -3.2313 H   0  0  0  1  0  0  0  0  0  0  0  0
   -1.3910    4.2834   -3.4973 H   0  0  0  1  0  0  0  0  0  0  0  0
   -1.4731    2.6237   -4.0383 H   0  0  0  1  0  0  0  0  0  0  0  0
   -0.4359   -1.7445    1.4233 H   0  0  0  1  0  0  0  0  0  0  0  0
   -0.1485   -2.4606   -0.1442 H   0  0  0  1  0  0  0  0  0  0  0  0
   -1.7049   -2.6450    0.6289 H   0  0  0  1  0  0  0  0  0  0  0  0
   -4.1398    3.3019    1.6037 F   0  0  0  1  0  0  0  0  0  0  0  0
   -3.3319    4.3114    1.2268 C   0  0  0  1  0  0  0  0  0  0  0  0
   -1.9716    4.0914    1.0765 C   0  0  0  1  0  0  0  0  0  0  0  0
   -1.1416    5.1287    0.6948 C   0  0  0  1  0  0  0  0  0  0  0  0
   -1.6705    6.3878    0.4572 C   0  0  0  1  0  0  0  0  0  0  0  0
   -3.0268    6.6073    0.6071 C   0  0  0  1  0  0  0  0  0  0  0  0
   -3.8590    5.5669    0.9899 C   0  0  0  1  0  0  0  0  0  0  0  0
   -1.3962    2.7180    1.3297 C   0  0  0  1  0  0  0  0  0  0  0  0
   -0.1204    4.9645    0.5860 H   0  0  0  1  0  0  0  0  0  0  0  0
   -1.0467    7.1674    0.1662 H   0  0  0  1  0  0  0  0  0  0  0  0
   -3.4230    7.5529    0.4327 H   0  0  0  1  0  0  0  0  0  0  0  0
   -4.8802    5.7310    1.0987 H   0  0  0  1  0  0  0  0  0  0  0  0
   -0.3380    2.8105    1.4582 H   0  0  0  1  0  0  0  0  0  0  0  0
   -1.8318    2.3261    2.2251 H   0  0  0  1  0  0  0  0  0  0  0  0
  1  4  1  0  0  0  0
  2  4  1  0  0  0  0
  2  5  2  0  0  0  0
  2  6  1  0  0  0  0
  3  4  1  0  0  0  0
  3  7  1  0  0  0  0
  3  8  1  0  0  0  0
  4 26  1  0  0  0  0
  6  9  1  0  0  0  0
  6 12  1  0  0  0  0
  8 10  1  0  0  0  0
  8 11  2  0  0  0  0
  9 13  1  0  0  0  0
  9 14  1  0  0  0  0
  9 15  1  0  0  0  0
 10 16  1  0  0  0  0
 10 17  1  0  0  0  0
 10 18  1  0  0  0  0
 19 20  1  0  0  0  0
 20 21  4  0  0  0  0
 20 25  4  0  0  0  0
 21 22  4  0  0  0  0
 21 26  1  0  0  0  0
 22 23  4  0  0  0  0
 22 27  1  0  0  0  0
 23 24  4  0  0  0  0
 23 28  1  0  0  0  0
 24 25  4  0  0  0  0
 24 29  1  0  0  0  0
 25 30  1  0  0  0  0
 26 31  1  0  0  0  0
 26 32  1  0  0  0  0
M  END
> <BCLConfClusterSize>
1

> <ConfClashScore>
0 

> <ConfOneFourInteractionScore>
-0.985807 

> <ConfScore>
-0.0143032 

> <ConfScorePBest>
0.00472943 

> <ConfTolerance>
0.279512 

> <RosettaParamsInstructions>
M  ROOT 3
M  POLY_N_BB 3
M  POLY_CA_BB 4
M  POLY_C_BB 2
M  POLY_O_BB 5
M  POLY_IGNORE 9 10 11 12 13 14 15 16 17 18 
M  POLY_UPPER 6
M  POLY_LOWER 8
M  POLY_CHG 0
M  POLY_PROPERTIES ALPHA_AA L_AA PROTEIN AROMATIC POLYMER 
M  END

$$$$



 32 32  0  0  0  0  0  0  0  0999 V2000
   -0.6966    3.3235    3.2405 H   0  0  0  1  0  0  0  0  0  0  0  0
   -2.6395    2.5334    3.5010 C   0  0  0  1  0  0  0  0  0  0  0  0
   -0.5896    1.2608    3.1424 N   0  0  0  1  0  0  0  0  0  0  0  0
   -1.2699    2.5121    2.8432 C   0  0  0  1  0  0  0  0  0  0  0  0
   -3.4167    1.6014    3.3755 O   0  0  0  1  0  0  0  0  0  0  0  0
   -2.9239    3.6255    4.2122 N   0  0  0  1  0  0  0  0  0  0  0  0
   -1.0294    0.4162    2.9110 H   0  0  0  1  0  0  0  0  0  0  0  0
    0.6138    1.2235    3.7216 C   0  0  0  1  0  0  0  0  0  0  0  0
   -4.2512    3.8009    4.7827 C   0  0  0  1  0  0  0  0  0  0  0  0
    1.2318   -0.1533    3.8685 C   0  0  0  1  0  0  0  0  0  0  0  0
    1.1986    2.2312    4.1168 O   0  0  0  1  0  0  0  0  0  0  0  0
   -2.2376    4.3112    4.3508 H   0  0  0  1  0  0  0  0  0  0  0  0
   -4.9026    4.2254    4.0476 H   0  0  0  1  0  0  0  0  0  0  0  0
   -4.1925    4.4552    5.6273 H   0  0  0  1  0  0  0  0  0  0  0  0
   -4.6343    2.8511    5.0926 H   0  0  0  1  0  0  0  0  0  0  0  0
    0.6426   -0.7392    4.5427 H   0  0  0  1  0  0  0  0  0  0  0  0
    2.2256   -0.0587    4.2535 H   0  0  0  1  0  0  0  0  0  0  0  0
    1.2632   -0.6337    2.9129 H   0  0  0  1  0  0  0  0  0  0  0  0
   -4.1397    3.3020    1.6037 F   0  0  0  1  0  0  0  0  0  0  0  0
   -3.3318    4.3115    1.2268 C   0  0  0  1  0  0  0  0  0  0  0  0
   -1.9715    4.0914    1.0765 C   0  0  0  1  0  0  0  0  0  0  0  0
   -1.1417    5.1287    0.6949 C   0  0  0  1  0  0  0  0  0  0  0  0
   -1.6704    6.3879    0.4572 C   0  0  0  1  0  0  0  0  0  0  0  0
   -3.0268    6.6072    0.6071 C   0  0  0  1  0  0  0  0  0  0  0  0
   -3.8592    5.5669    0.9899 C   0  0  0  1  0  0  0  0  0  0  0  0
   -1.3961    2.7179    1.3298 C   0  0  0  1  0  0  0  0  0  0  0  0
   -0.1206    4.9645    0.5860 H   0  0  0  1  0  0  0  0  0  0  0  0
   -1.0466    7.1674    0.1662 H   0  0  0  1  0  0  0  0  0  0  0  0
   -3.4229    7.5529    0.4327 H   0  0  0  1  0  0  0  0  0  0  0  0
   -4.8803    5.7311    1.0988 H   0  0  0  1  0  0  0  0  0  0  0  0
   -2.0452    1.9738    0.9178 H   0  0  0  1  0  0  0  0  0  0  0  0
   -0.4310    2.6420    0.8740 H   0  0  0  1  0  0  0  0  0  0  0  0
  1  4  1  0  0  0  0
  2  4  1  0  0  0  0
  2  5  2  0  0  0  0
  2  6  1  0  0  0  0
  3  4  1  0  0  0  0
  3  7  1  0  0  0  0
  3  8  1  0  0  0  0
  4 26  1  0  0  0  0
  6  9  1  0  0  0  0
  6 12  1  0  0  0  0
  8 10  1  0  0  0  0
  8 11  2  0  0  0  0
  9 13  1  0  0  0  0
  9 14  1  0  0  0  0
  9 15  1  0  0  0  0
 10 16  1  0  0  0  0
 10 17  1  0  0  0  0
 10 18  1  0  0  0  0
 19 20  1  0  0  0  0
 20 21  4  0  0  0  0
 20 25  4  0  0  0  0
 21 22  4  0  0  0  0
 21 26  1  0  0  0  0
 22 23  4  0  0  0  0
 22 27  1  0  0  0  0
 23 24  4  0  0  0  0
 23 28  1  0  0  0  0
 24 25  4  0  0  0  0
 24 29  1  0  0  0  0
 25 30  1  0  0  0  0
 26 31  1  0  0  0  0
 26 32  1  0  0  0  0
M  END
> <BCLConfClusterSize>
1

> <ConfClashScore>
0 

> <ConfOneFourInteractionScore>
-0.982823 

> <ConfScore>
-0.0131078 

> <ConfScorePBest>
0.00470095 

> <ConfTolerance>
0.360569 

> <RosettaParamsInstructions>
M  ROOT 3
M  POLY_N_BB 3
M  POLY_CA_BB 4
M  POLY_C_BB 2
M  POLY_O_BB 5
M  POLY_IGNORE 9 10 11 12 13 14 15 16 17 18 
M  POLY_UPPER 6
M  POLY_LOWER 8
M  POLY_CHG 0
M  POLY_PROPERTIES ALPHA_AA L_AA PROTEIN AROMATIC POLYMER 
M  END

$$$$



 32 32  0  0  0  0  0  0  0  0999 V2000
   -1.0143    2.4420   -0.6998 H   0  0  0  1  0  0  0  0  0  0  0  0
   -0.4587    0.6208    0.1729 C   0  0  0  1  0  0  0  0  0  0  0  0
   -2.7572    1.4330   -0.2655 N   0  0  0  1  0  0  0  0  0  0  0  0
   -1.3818    1.8334    0.0998 C   0  0  0  1  0  0  0  0  0  0  0  0
    0.7347    0.7424    0.4460 O   0  0  0  1  0  0  0  0  0  0  0  0
   -1.0335   -0.5654   -0.0780 N   0  0  0  1  0  0  0  0  0  0  0  0
   -3.2594    0.8543    0.3455 H   0  0  0  1  0  0  0  0  0  0  0  0
   -3.3394    1.8327   -1.3997 C   0  0  0  1  0  0  0  0  0  0  0  0
   -0.2906   -1.8157   -0.0267 C   0  0  0  1  0  0  0  0  0  0  0  0
   -4.7556    1.3490   -1.6912 C   0  0  0  1  0  0  0  0  0  0  0  0
   -2.8009    2.5690   -2.2251 O   0  0  0  1  0  0  0  0  0  0  0  0
   -1.9868   -0.5906   -0.3037 H   0  0  0  1  0  0  0  0  0  0  0  0
    0.7503   -1.6074    0.1082 H   0  0  0  1  0  0  0  0  0  0  0  0
   -0.4311   -2.3516   -0.9420 H   0  0  0  1  0  0  0  0  0  0  0  0
   -0.6446   -2.4073    0.7916 H   0  0  0  1  0  0  0  0  0  0  0  0
   -5.4259    1.7423   -0.9556 H   0  0  0  1  0  0  0  0  0  0  0  0
   -4.7805    0.2797   -1.6606 H   0  0  0  1  0  0  0  0  0  0  0  0
   -5.0545    1.6856   -2.6619 H   0  0  0  1  0  0  0  0  0  0  0  0
   -4.1391    3.2984    1.5955 F   0  0  0  1  0  0  0  0  0  0  0  0
   -3.3302    4.3096    1.2252 C   0  0  0  1  0  0  0  0  0  0  0  0
   -1.9734    4.0909    1.0783 C   0  0  0  1  0  0  0  0  0  0  0  0
   -1.1418    5.1304    0.6920 C   0  0  0  1  0  0  0  0  0  0  0  0
   -1.6684    6.3868    0.4589 C   0  0  0  1  0  0  0  0  0  0  0  0
   -3.0291    6.6060    0.6062 C   0  0  0  1  0  0  0  0  0  0  0  0
   -3.8586    5.5697    0.9914 C   0  0  0  1  0  0  0  0  0  0  0  0
   -1.3969    2.7193    1.3387 C   0  0  0  1  0  0  0  0  0  0  0  0
   -0.1214    4.9649    0.5776 H   0  0  0  1  0  0  0  0  0  0  0  0
   -1.0437    7.1676    0.1729 H   0  0  0  1  0  0  0  0  0  0  0  0
   -3.4260    7.5505    0.4269 H   0  0  0  1  0  0  0  0  0  0  0  0
   -4.8789    5.7352    1.1058 H   0  0  0  1  0  0  0  0  0  0  0  0
   -0.3921    2.8329    1.6884 H   0  0  0  1  0  0  0  0  0  0  0  0
   -1.9855    2.2400    2.0929 H   0  0  0  1  0  0  0  0  0  0  0  0
  1  4  1  0  0  0  0
  2  4  1  0  0  0  0
  2  5  2  0  0  0  0
  2  6  1  0  0  0  0
  3  4  1  0  0  0  0
  3  7  1  0  0  0  0
  3  8  1  0  0  0  0
  4 26  1  0  0  0  0
  6  9  1  0  0  0  0
  6 12  1  0  0  0  0
  8 10  1  0  0  0  0
  8 11  2  0  0  0  0
  9 13  1  0  0  0  0
  9 14  1  0  0  0  0
  9 15  1  0  0  0  0
 10 16  1  0  0  0  0
 10 17  1  0  0  0  0
 10 18  1  0  0  0  0
 19 20  1  0  0  0  0
 20 21  4  0  0  0  0
 20 25  4  0  0  0  0
 21 22  4  0  0  0  0
 21 26  1  0  0  0  0
 22 23  4  0  0  0  0
 22 27  1  0  0  0  0
 23 24  4  0  0  0  0
 23 28  1  0  0  0  0
 24 25  4  0  0  0  0
 24 29  1  0  0  0  0
 25 30  1  0  0  0  0
 26 31  1  0  0  0  0
 26 32  1  0  0  0  0
M  END
> <BCLConfClusterSize>
1

> <ConfClashScore>
0 

> <ConfOneFourInteractionScore>
-0.961138 

> <ConfScore>
-0.0126719 

> <ConfScorePBest>
0.00467247 

> <ConfTolerance>
0.338296 

> <RosettaParamsInstructions>
M  ROOT 3
M  POLY_N_BB 3
M  POLY_CA_BB 4
M  POLY_C_BB 2
M  POLY_O_BB 5
M  POLY_IGNORE 9 10 11 12 13 14 15 16 17 18 
M  POLY_UPPER 6
M  POLY_LOWER 8
M  POLY_CHG 0
M  POLY_PROPERTIES ALPHA_AA L_AA PROTEIN AROMATIC POLYMER 
M  END

$$$$



 32 32  0  0  0  0  0  0  0  0999 V2000
    0.1353    3.3142    2.6606 H   0  0  0  1  0  0  0  0  0  0  0  0
   -1.5943    2.9899    3.8238 C   0  0  0  1  0  0  0  0  0  0  0  0
   -0.1202    1.2866    2.9248 N   0  0  0  1  0  0  0  0  0  0  0  0
   -0.6704    2.6102    2.6733 C   0  0  0  1  0  0  0  0  0  0  0  0
   -2.6480    2.3837    4.0133 O   0  0  0  1  0  0  0  0  0  0  0  0
   -1.2260    3.9988    4.6185 N   0  0  0  1  0  0  0  0  0  0  0  0
   -0.3040    0.5540    2.3004 H   0  0  0  1  0  0  0  0  0  0  0  0
    0.6351    1.0682    4.0050 C   0  0  0  1  0  0  0  0  0  0  0  0
   -2.0705    4.4853    5.6993 C   0  0  0  1  0  0  0  0  0  0  0  0
    1.1427   -0.3501    4.1780 C   0  0  0  1  0  0  0  0  0  0  0  0
    0.9111    1.9475    4.8169 O   0  0  0  1  0  0  0  0  0  0  0  0
   -0.3569    4.4260    4.4685 H   0  0  0  1  0  0  0  0  0  0  0  0
   -1.8463    5.5135    5.8925 H   0  0  0  1  0  0  0  0  0  0  0  0
   -1.8875    3.9086    6.5818 H   0  0  0  1  0  0  0  0  0  0  0  0
   -3.0986    4.3914    5.4181 H   0  0  0  1  0  0  0  0  0  0  0  0
    1.5366   -0.7044    3.2484 H   0  0  0  1  0  0  0  0  0  0  0  0
    0.3365   -0.9819    4.4875 H   0  0  0  1  0  0  0  0  0  0  0  0
    1.9132   -0.3648    4.9203 H   0  0  0  1  0  0  0  0  0  0  0  0
   -4.1397    3.3020    1.6037 F   0  0  0  1  0  0  0  0  0  0  0  0
   -3.3318    4.3115    1.2268 C   0  0  0  1  0  0  0  0  0  0  0  0
   -1.9715    4.0913    1.0765 C   0  0  0  1  0  0  0  0  0  0  0  0
   -1.1417    5.1287    0.6949 C   0  0  0  1  0  0  0  0  0  0  0  0
   -1.6705    6.3878    0.4572 C   0  0  0  1  0  0  0  0  0  0  0  0
   -3.0268    6.6072    0.6071 C   0  0  0  1  0  0  0  0  0  0  0  0
   -3.8591    5.5669    0.9899 C   0  0  0  1  0  0  0  0  0  0  0  0
   -1.3961    2.7179    1.3298 C   0  0  0  1  0  0  0  0  0  0  0  0
   -0.1205    4.9646    0.5860 H   0  0  0  1  0  0  0  0  0  0  0  0
   -1.0466    7.1674    0.1662 H   0  0  0  1  0  0  0  0  0  0  0  0
   -3.4229    7.5528    0.4327 H   0  0  0  1  0  0  0  0  0  0  0  0
   -4.8803    5.7311    1.0987 H   0  0  0  1  0  0  0  0  0  0  0  0
   -2.1949    2.0062    1.3161 H   0  0  0  1  0  0  0  0  0  0  0  0
   -0.7015    2.4903    0.5483 H   0  0  0  1  0  0  0  0  0  0  0  0
  1  4  1  0  0  0  0
  2  4  1  0  0  0  0
  2  5  2  0  0  0  0
  2  6  1  0  0  0  0
  3  4  1  0  0  0  0
  3  7  1  0  0  0  0
  3  8  1  0  0  0  0
  4 26  1  0  0  0  0
  6  9  1  0  0  0  0
  6 12  1  0  0  0  0
  8 10  1  0  0  0  0
  8 11  2  0  0  0  0
  9 13  1  0  0  0  0
  9 14  1  0  0  0  0
  9 15  1  0  0  0  0
 10 16  1  0  0  0  0
 10 17  1  0  0  0  0
 10 18  1  0  0  0  0
 19 20  1  0  0  0  0
 20 21  4  0  0  0  0
 20 25  4  0  0  0  0
 21 22  4  0  0  0  0
 21 26  1  0  0  0  0
 22 23  4  0  0  0  0
 22 27  1  0  0  0  0
 23 24  4  0  0  0  0
 23 28  1  0  0  0  0
 24 25  4  0  0  0  0
 24 29  1  0  0  0  0
 25 30  1  0  0  0  0
 26 31  1  0  0  0  0
 26 32  1  0  0  0  0
M  END
> <BCLConfClusterSize>
1

> <ConfClashScore>
0 

> <ConfOneFourInteractionScore>
-0.985807 

> <ConfScore>
-0.0116722 

> <ConfScorePBest>
0.00464399 

> <ConfTolerance>
0.267296 

> <RosettaParamsInstructions>
M  ROOT 3
M  POLY_N_BB 3
M  POLY_CA_BB 4
M  POLY_C_BB 2
M  POLY_O_BB 5
M  POLY_IGNORE 9 10 11 12 13 14 15 16 17 18 
M  POLY_UPPER 6
M  POLY_LOWER 8
M  POLY_CHG 0
M  POLY_PROPERTIES ALPHA_AA L_AA PROTEIN AROMATIC POLYMER 
M  END

$$$$



 32 32  0  0  0  0  0  0  0  0999 V2000
   -0.3388    3.1603    3.1123 H   0  0  0  1  0  0  0  0  0  0  0  0
   -2.2366    2.3569    3.6331 C   0  0  0  1  0  0  0  0  0  0  0  0
   -0.3001    1.1092    2.7912 N   0  0  0  1  0  0  0  0  0  0  0  0
   -0.9902    2.3899    2.7558 C   0  0  0  1  0  0  0  0  0  0  0  0
   -3.1556    1.6096    3.3005 O   0  0  0  1  0  0  0  0  0  0  0  0
   -2.2673    3.1451    4.7237 N   0  0  0  1  0  0  0  0  0  0  0  0
   -0.2301    0.5866    1.9651 H   0  0  0  1  0  0  0  0  0  0  0  0
    0.2468    0.6162    3.9218 C   0  0  0  1  0  0  0  0  0  0  0  0
   -3.4374    3.0823    5.5802 C   0  0  0  1  0  0  0  0  0  0  0  0
    0.9217   -0.7399    3.8547 C   0  0  0  1  0  0  0  0  0  0  0  0
    0.2005    1.2465    4.9774 O   0  0  0  1  0  0  0  0  0  0  0  0
   -1.5207    3.7443    4.9335 H   0  0  0  1  0  0  0  0  0  0  0  0
   -3.1401    3.2054    6.6007 H   0  0  0  1  0  0  0  0  0  0  0  0
   -3.9162    2.1329    5.4606 H   0  0  0  1  0  0  0  0  0  0  0  0
   -4.1186    3.8623    5.3109 H   0  0  0  1  0  0  0  0  0  0  0  0
    0.2032   -1.4832    3.5787 H   0  0  0  1  0  0  0  0  0  0  0  0
    1.3338   -0.9808    4.8123 H   0  0  0  1  0  0  0  0  0  0  0  0
    1.7044   -0.7128    3.1256 H   0  0  0  1  0  0  0  0  0  0  0  0
   -4.1391    3.2984    1.5955 F   0  0  0  1  0  0  0  0  0  0  0  0
   -3.3302    4.3096    1.2252 C   0  0  0  1  0  0  0  0  0  0  0  0
   -1.9734    4.0909    1.0783 C   0  0  0  1  0  0  0  0  0  0  0  0
   -1.1418    5.1304    0.6920 C   0  0  0  1  0  0  0  0  0  0  0  0
   -1.6684    6.3868    0.4589 C   0  0  0  1  0  0  0  0  0  0  0  0
   -3.0291    6.6060    0.6062 C   0  0  0  1  0  0  0  0  0  0  0  0
   -3.8586    5.5697    0.9914 C   0  0  0  1  0  0  0  0  0  0  0  0
   -1.3969    2.7193    1.3387 C   0  0  0  1  0  0  0  0  0  0  0  0
   -0.1214    4.9649    0.5776 H   0  0  0  1  0  0  0  0  0  0  0  0
   -1.0437    7.1676    0.1729 H   0  0  0  1  0  0  0  0  0  0  0  0
   -3.4260    7.5505    0.4269 H   0  0  0  1  0  0  0  0  0  0  0  0
   -4.8789    5.7352    1.1058 H   0  0  0  1  0  0  0  0  0  0  0  0
   -2.1325    2.0012    1.0416 H   0  0  0  1  0  0  0  0  0  0  0  0
   -0.5275    2.6154    0.7237 H   0  0  0  1  0  0  0  0  0  0  0  0
  1  4  1  0  0  0  0
  2  4  1  0  0  0  0
  2  5  2  0  0  0  0
  2  6  1  0  0  0  0
  3  4  1  0  0  0  0
  3  7  1  0  0  0  0
  3  8  1  0  0  0  0
  4 26  1  0  0  0  0
  6  9  1  0  0  0  0
  6 12  1  0  0  0  0
  8 10  1  0  0  0  0
  8 11  2  0  0  0  0
  9 13  1  0  0  0  0
  9 14  1  0  0  0  0
  9 15  1  0  0  0  0
 10 16  1  0  0  0  0
 10 17  1  0  0  0  0
 10 18  1  0  0  0  0
 19 20  1  0  0  0  0
 20 21  4  0  0  0  0
 20 25  4  0  0  0  0
 21 22  4  0  0  0  0
 21 26  1  0  0  0  0
 22 23  4  0  0  0  0
 22 27  1  0  0  0  0
 23 24  4  0  0  0  0
 23 28  1  0  0  0  0
 24 25  4  0  0  0  0
 24 29  1  0  0  0  0
 25 30  1  0  0  0  0
 26 31  1  0  0  0  0
 26 32  1  0  0  0  0
M  END
> <BCLConfClusterSize>
1

> <ConfClashScore>
0 

> <ConfOneFourInteractionScore>
-0.979134 

> <ConfScore>
-0.00871716 

> <ConfScorePBest>
0.00461551 

> <ConfTolerance>
0.322997 

> <RosettaParamsInstructions>
M  ROOT 3
M  POLY_N_BB 3
M  POLY_CA_BB 4
M  POLY_C_BB 2
M  POLY_O_BB 5
M  POLY_IGNORE 9 10 11 12 13 14 15 16 17 18 
M  POLY_UPPER 6
M  POLY_LOWER 8
M  POLY_CHG 0
M  POLY_PROPERTIES ALPHA_AA L_AA PROTEIN AROMATIC POLYMER 
M  END

$$$$



 32 32  0  0  0  0  0  0  0  0999 V2000
   -2.2976    2.2197    3.1739 H   0  0  0  1  0  0  0  0  0  0  0  0
   -0.5382    1.0796    3.0345 C   0  0  0  1  0  0  0  0  0  0  0  0
   -0.7243    3.4903    3.5528 N   0  0  0  1  0  0  0  0  0  0  0  0
   -1.2998    2.3730    2.8192 C   0  0  0  1  0  0  0  0  0  0  0  0
   -0.8118    0.0714    2.4043 O   0  0  0  1  0  0  0  0  0  0  0  0
    0.4342    1.1247    3.9464 N   0  0  0  1  0  0  0  0  0  0  0  0
    0.2106    3.7334    3.3875 H   0  0  0  1  0  0  0  0  0  0  0  0
   -1.4261    4.1962    4.4440 C   0  0  0  1  0  0  0  0  0  0  0  0
    1.2261   -0.0450    4.2968 C   0  0  0  1  0  0  0  0  0  0  0  0
   -0.7864    5.4891    4.9113 C   0  0  0  1  0  0  0  0  0  0  0  0
   -2.5210    3.8369    4.8690 O   0  0  0  1  0  0  0  0  0  0  0  0
    0.6220    1.9750    4.3959 H   0  0  0  1  0  0  0  0  0  0  0  0
    1.3348   -0.6732    3.4376 H   0  0  0  1  0  0  0  0  0  0  0  0
    0.7334   -0.5885    5.0758 H   0  0  0  1  0  0  0  0  0  0  0  0
    2.1922    0.2669    4.6349 H   0  0  0  1  0  0  0  0  0  0  0  0
   -1.4830    6.2935    4.7985 H   0  0  0  1  0  0  0  0  0  0  0  0
    0.0856    5.6879    4.3240 H   0  0  0  1  0  0  0  0  0  0  0  0
   -0.5104    5.3984    5.9411 H   0  0  0  1  0  0  0  0  0  0  0  0
   -4.1397    3.3020    1.6037 F   0  0  0  1  0  0  0  0  0  0  0  0
   -3.3318    4.3115    1.2268 C   0  0  0  1  0  0  0  0  0  0  0  0
   -1.9715    4.0914    1.0765 C   0  0  0  1  0  0  0  0  0  0  0  0
   -1.1417    5.1287    0.6949 C   0  0  0  1  0  0  0  0  0  0  0  0
   -1.6704    6.3879    0.4572 C   0  0  0  1  0  0  0  0  0  0  0  0
   -3.0268    6.6072    0.6071 C   0  0  0  1  0  0  0  0  0  0  0  0
   -3.8592    5.5669    0.9899 C   0  0  0  1  0  0  0  0  0  0  0  0
   -1.3961    2.7179    1.3298 C   0  0  0  1  0  0  0  0  0  0  0  0
   -0.1206    4.9645    0.5860 H   0  0  0  1  0  0  0  0  0  0  0  0
   -1.0466    7.1674    0.1662 H   0  0  0  1  0  0  0  0  0  0  0  0
   -3.4229    7.5529    0.4327 H   0  0  0  1  0  0  0  0  0  0  0  0
   -4.8803    5.7311    1.0988 H   0  0  0  1  0  0  0  0  0  0  0  0
   -2.0218    1.9932    0.8521 H   0  0  0  1  0  0  0  0  0  0  0  0
   -0.4143    2.6767    0.9064 H   0  0  0  1  0  0  0  0  0  0  0  0
  1  4  1  0  0  0  0
  2  4  1  0  0  0  0
  2  5  2  0  0  0  0
  2  6  1  0  0  0  0
  3  4  1  0  0  0  0
  3  7  1  0  0  0  0
  3  8  1  0  0  0  0
  4 26  1  0  0  0  0
  6  9  1  0  0  0  0
  6 12  1  0  0  0  0
  8 10  1  0  0  0  0
  8 11  2  0  0  0  0
  9 13  1  0  0  0  0
  9 14  1  0  0  0  0
  9 15  1  0  0  0  0
 10 16  1  0  0  0  0
 10 17  1  0  0  0  0
 10 18  1  0  0  0  0
 19 20  1  0  0  0  0
 20 21  4  0  0  0  0
 20 25  4  0  0  0  0
 21 22  4  0  0  0  0
 21 26  1  0  0  0  0
 22 23  4  0  0  0  0
 22 27  1  0  0  0  0
 23 24  4  0  0  0  0
 23 28  1  0  0  0  0
 24 25  4  0  0  0  0
 24 29  1  0  0  0  0
 25 30  1  0  0  0  0
 26 31  1  0  0  0  0
 26 32  1  0  0  0  0
M  END
> <BCLConfClusterSize>
1

> <ConfClashScore>
0 

> <ConfOneFourInteractionScore>
-0.946346 

> <ConfScore>
-0.00811955 

> <ConfScorePBest>
0.00458703 

> <ConfTolerance>
0.430704 

> <RosettaParamsInstructions>
M  ROOT 3
M  POLY_N_BB 3
M  POLY_CA_BB 4
M  POLY_C_BB 2
M  POLY_O_BB 5
M  POLY_IGNORE 9 10 11 12 13 14 15 16 17 18 
M  POLY_UPPER 6
M  POLY_LOWER 8
M  POLY_CHG 0
M  POLY_PROPERTIES ALPHA_AA L_AA PROTEIN AROMATIC POLYMER 
M  END

$$$$



 32 32  0  0  0  0  0  0  0  0999 V2000
   -2.5812    1.6679   -0.1027 H   0  0  0  1  0  0  0  0  0  0  0  0
   -0.9008    2.4811   -1.1337 C   0  0  0  1  0  0  0  0  0  0  0  0
   -0.8795    0.5550    0.3389 N   0  0  0  1  0  0  0  0  0  0  0  0
   -1.5409    1.8273    0.0907 C   0  0  0  1  0  0  0  0  0  0  0  0
    0.2773    2.8281   -1.1281 O   0  0  0  1  0  0  0  0  0  0  0  0
   -1.7060    2.6447   -2.1953 N   0  0  0  1  0  0  0  0  0  0  0  0
   -0.3705    0.4039    1.1626 H   0  0  0  1  0  0  0  0  0  0  0  0
   -0.9859   -0.4012   -0.5881 C   0  0  0  1  0  0  0  0  0  0  0  0
   -1.2611    3.3037   -3.4142 C   0  0  0  1  0  0  0  0  0  0  0  0
   -0.1991   -1.6693   -0.3198 C   0  0  0  1  0  0  0  0  0  0  0  0
   -1.6734   -0.2786   -1.6010 O   0  0  0  1  0  0  0  0  0  0  0  0
   -2.6254    2.3087   -2.1478 H   0  0  0  1  0  0  0  0  0  0  0  0
   -0.4688    3.9848   -3.1832 H   0  0  0  1  0  0  0  0  0  0  0  0
   -2.0784    3.8415   -3.8473 H   0  0  0  1  0  0  0  0  0  0  0  0
   -0.9089    2.5694   -4.1082 H   0  0  0  1  0  0  0  0  0  0  0  0
   -0.0728   -2.2114   -1.2336 H   0  0  0  1  0  0  0  0  0  0  0  0
   -0.7300   -2.2759    0.3839 H   0  0  0  1  0  0  0  0  0  0  0  0
    0.7605   -1.4156    0.0798 H   0  0  0  1  0  0  0  0  0  0  0  0
   -4.1399    3.3022    1.6037 F   0  0  0  1  0  0  0  0  0  0  0  0
   -3.3320    4.3118    1.2268 C   0  0  0  1  0  0  0  0  0  0  0  0
   -1.9717    4.0918    1.0764 C   0  0  0  1  0  0  0  0  0  0  0  0
   -1.1418    5.1290    0.6948 C   0  0  0  1  0  0  0  0  0  0  0  0
   -1.6706    6.3881    0.4572 C   0  0  0  1  0  0  0  0  0  0  0  0
   -3.0270    6.6077    0.6070 C   0  0  0  1  0  0  0  0  0  0  0  0
   -3.8592    5.5672    0.9898 C   0  0  0  1  0  0  0  0  0  0  0  0
   -1.3946    2.7144    1.3304 C   0  0  0  1  0  0  0  0  0  0  0  0
   -0.1206    4.9649    0.5859 H   0  0  0  1  0  0  0  0  0  0  0  0
   -1.0468    7.1676    0.1661 H   0  0  0  1  0  0  0  0  0  0  0  0
   -3.4231    7.5533    0.4326 H   0  0  0  1  0  0  0  0  0  0  0  0
   -4.8804    5.7314    1.0987 H   0  0  0  1  0  0  0  0  0  0  0  0
   -0.3570    2.8082    1.5742 H   0  0  0  1  0  0  0  0  0  0  0  0
   -1.9142    2.2618    2.1490 H   0  0  0  1  0  0  0  0  0  0  0  0
  1  4  1  0  0  0  0
  2  4  1  0  0  0  0
  2  5  2  0  0  0  0
  2  6  1  0  0  0  0
  3  4  1  0  0  0  0
  3  7  1  0  0  0  0
  3  8  1  0  0  0  0
  4 26  1  0  0  0  0
  6  9  1  0  0  0  0
  6 12  1  0  0  0  0
  8 10  1  0  0  0  0
  8 11  2  0  0  0  0
  9 13  1  0  0  0  0
  9 14  1  0  0  0  0
  9 15  1  0  0  0  0
 10 16  1  0  0  0  0
 10 17  1  0  0  0  0
 10 18  1  0  0  0  0
 19 20  1  0  0  0  0
 20 21  4  0  0  0  0
 20 25  4  0  0  0  0
 21 22  4  0  0  0  0
 21 26  1  0  0  0  0
 22 23  4  0  0  0  0
 22 27  1  0  0  0  0
 23 24  4  0  0  0  0
 23 28  1  0  0  0  0
 24 25  4  0  0  0  0
 24 29  1  0  0  0  0
 25 30  1  0  0  0  0
 26 31  1  0  0  0  0
 26 32  1  0  0  0  0
M  END
> <BCLConfClusterSize>
1

> <ConfClashScore>
0 

> <ConfOneFourInteractionScore>
-0.985807 

> <ConfScore>
-0.00716648 

> <ConfScorePBest>
0.00455855 

> <ConfTolerance>
0.402202 

> <RosettaParamsInstructions>
M  ROOT 3
M  POLY_N_BB 3
M  POLY_CA_BB 4
M  POLY_C_BB 2
M  POLY_O_BB 5
M  POLY_IGNORE 9 10 11 12 13 14 15 16 17 18 
M  POLY_UPPER 6
M  POLY_LOWER 8
M  POLY_CHG 0
M  POLY_PROPERTIES ALPHA_AA L_AA PROTEIN AROMATIC POLYMER 
M  END

$$$$



 32 32  0  0  0  0  0  0  0  0999 V2000
   -0.2842    3.0240    3.0879 H   0  0  0  1  0  0  0  0  0  0  0  0
   -2.2760    2.8362    3.7390 C   0  0  0  1  0  0  0  0  0  0  0  0
   -0.7904    1.0201    2.9947 N   0  0  0  1  0  0  0  0  0  0  0  0
   -1.1367    2.4426    2.8051 C   0  0  0  1  0  0  0  0  0  0  0  0
   -3.2142    2.0842    3.9451 O   0  0  0  1  0  0  0  0  0  0  0  0
   -2.1729    4.0405    4.3032 N   0  0  0  1  0  0  0  0  0  0  0  0
   -0.8549    0.4115    2.2292 H   0  0  0  1  0  0  0  0  0  0  0  0
   -0.3922    0.5335    4.1735 C   0  0  0  1  0  0  0  0  0  0  0  0
   -3.1785    4.5587    5.2187 C   0  0  0  1  0  0  0  0  0  0  0  0
   -0.1483   -0.9790    4.2502 C   0  0  0  1  0  0  0  0  0  0  0  0
   -0.1461    1.2431    5.1453 O   0  0  0  1  0  0  0  0  0  0  0  0
   -1.3929    4.5956    4.0940 H   0  0  0  1  0  0  0  0  0  0  0  0
   -4.1544    4.3418    4.8373 H   0  0  0  1  0  0  0  0  0  0  0  0
   -3.0608    5.6178    5.3151 H   0  0  0  1  0  0  0  0  0  0  0  0
   -3.0597    4.0975    6.1769 H   0  0  0  1  0  0  0  0  0  0  0  0
   -0.2707   -1.3097    5.2604 H   0  0  0  1  0  0  0  0  0  0  0  0
    0.8466   -1.1967    3.9221 H   0  0  0  1  0  0  0  0  0  0  0  0
   -0.8505   -1.4856    3.6217 H   0  0  0  1  0  0  0  0  0  0  0  0
   -4.1398    3.3019    1.6037 F   0  0  0  1  0  0  0  0  0  0  0  0
   -3.3319    4.3114    1.2268 C   0  0  0  1  0  0  0  0  0  0  0  0
   -1.9715    4.0914    1.0765 C   0  0  0  1  0  0  0  0  0  0  0  0
   -1.1416    5.1287    0.6948 C   0  0  0  1  0  0  0  0  0  0  0  0
   -1.6705    6.3878    0.4572 C   0  0  0  1  0  0  0  0  0  0  0  0
   -3.0268    6.6073    0.6071 C   0  0  0  1  0  0  0  0  0  0  0  0
   -3.8590    5.5669    0.9899 C   0  0  0  1  0  0  0  0  0  0  0  0
   -1.3961    2.7180    1.3297 C   0  0  0  1  0  0  0  0  0  0  0  0
   -0.1204    4.9646    0.5860 H   0  0  0  1  0  0  0  0  0  0  0  0
   -1.0467    7.1673    0.1662 H   0  0  0  1  0  0  0  0  0  0  0  0
   -3.4230    7.5529    0.4327 H   0  0  0  1  0  0  0  0  0  0  0  0
   -4.8802    5.7311    1.0987 H   0  0  0  1  0  0  0  0  0  0  0  0
   -2.0859    1.9868    0.9629 H   0  0  0  1  0  0  0  0  0  0  0  0
   -0.4705    2.6335    0.7996 H   0  0  0  1  0  0  0  0  0  0  0  0
  1  4  1  0  0  0  0
  2  4  1  0  0  0  0
  2  5  2  0  0  0  0
  2  6  1  0  0  0  0
  3  4  1  0  0  0  0
  3  7  1  0  0  0  0
  3  8  1  0  0  0  0
  4 26  1  0  0  0  0
  6  9  1  0  0  0  0
  6 12  1  0  0  0  0
  8 10  1  0  0  0  0
  8 11  2  0  0  0  0
  9 13  1  0  0  0  0
  9 14  1  0  0  0  0
  9 15  1  0  0  0  0
 10 16  1  0  0  0  0
 10 17  1  0  0  0  0
 10 18  1  0  0  0  0
 19 20  1  0  0  0  0
 20 21  4  0  0  0  0
 20 25  4  0  0  0  0
 21 22  4  0  0  0  0
 21 26  1  0  0  0  0
 22 23  4  0  0  0  0
 22 27  1  0  0  0  0
 23 24  4  0  0  0  0
 23 28  1  0  0  0  0
 24 25  4  0  0  0  0
 24 29  1  0  0  0  0
 25 30  1  0  0  0  0
 26 31  1  0  0  0  0
 26 32  1  0  0  0  0
M  END
> <BCLConfClusterSize>
1

> <ConfClashScore>
0 

> <ConfOneFourInteractionScore>
-0.981931 

> <ConfScore>
-0.00377155 

> <ConfScorePBest>
0.00453007 

> <ConfTolerance>
0.419385 

> <RosettaParamsInstructions>
M  ROOT 3
M  POLY_N_BB 3
M  POLY_CA_BB 4
M  POLY_C_BB 2
M  POLY_O_BB 5
M  POLY_IGNORE 9 10 11 12 13 14 15 16 17 18 
M  POLY_UPPER 6
M  POLY_LOWER 8
M  POLY_CHG 0
M  POLY_PROPERTIES ALPHA_AA L_AA PROTEIN AROMATIC POLYMER 
M  END

$$$$



 32 32  0  0  0  0  0  0  0  0999 V2000
   -0.4255    1.6610    2.9116 H   0  0  0  1  0  0  0  0  0  0  0  0
   -0.0042    3.7340    3.1335 C   0  0  0  1  0  0  0  0  0  0  0  0
   -2.1123    2.6002    3.6758 N   0  0  0  1  0  0  0  0  0  0  0  0
   -0.9520    2.5855    2.7975 C   0  0  0  1  0  0  0  0  0  0  0  0
    1.2049    3.5323    3.0289 O   0  0  0  1  0  0  0  0  0  0  0  0
   -0.5331    4.8924    3.5215 N   0  0  0  1  0  0  0  0  0  0  0  0
   -2.9847    2.8453    3.3028 H   0  0  0  1  0  0  0  0  0  0  0  0
   -2.0294    2.2913    4.9730 C   0  0  0  1  0  0  0  0  0  0  0  0
    0.2648    6.1005    3.6692 C   0  0  0  1  0  0  0  0  0  0  0  0
   -3.3435    2.2655    5.7292 C   0  0  0  1  0  0  0  0  0  0  0  0
   -0.9642    2.0409    5.5353 O   0  0  0  1  0  0  0  0  0  0  0  0
   -1.4930    4.9330    3.7145 H   0  0  0  1  0  0  0  0  0  0  0  0
    0.3521    6.5890    2.7211 H   0  0  0  1  0  0  0  0  0  0  0  0
    1.2391    5.8426    4.0283 H   0  0  0  1  0  0  0  0  0  0  0  0
   -0.2104    6.7584    4.3666 H   0  0  0  1  0  0  0  0  0  0  0  0
   -4.1331    2.5904    5.0844 H   0  0  0  1  0  0  0  0  0  0  0  0
   -3.2814    2.9192    6.5740 H   0  0  0  1  0  0  0  0  0  0  0  0
   -3.5431    1.2686    6.0628 H   0  0  0  1  0  0  0  0  0  0  0  0
   -4.1392    3.2984    1.5955 F   0  0  0  1  0  0  0  0  0  0  0  0
   -3.3303    4.3096    1.2252 C   0  0  0  1  0  0  0  0  0  0  0  0
   -1.9735    4.0909    1.0783 C   0  0  0  1  0  0  0  0  0  0  0  0
   -1.1416    5.1304    0.6920 C   0  0  0  1  0  0  0  0  0  0  0  0
   -1.6685    6.3867    0.4589 C   0  0  0  1  0  0  0  0  0  0  0  0
   -3.0292    6.6061    0.6062 C   0  0  0  1  0  0  0  0  0  0  0  0
   -3.8584    5.5697    0.9914 C   0  0  0  1  0  0  0  0  0  0  0  0
   -1.3970    2.7193    1.3387 C   0  0  0  1  0  0  0  0  0  0  0  0
   -0.1213    4.9649    0.5776 H   0  0  0  1  0  0  0  0  0  0  0  0
   -1.0439    7.1676    0.1730 H   0  0  0  1  0  0  0  0  0  0  0  0
   -3.4261    7.5505    0.4269 H   0  0  0  1  0  0  0  0  0  0  0  0
   -4.8787    5.7352    1.1058 H   0  0  0  1  0  0  0  0  0  0  0  0
   -2.1421    1.9802    1.1300 H   0  0  0  1  0  0  0  0  0  0  0  0
   -0.5531    2.5662    0.6990 H   0  0  0  1  0  0  0  0  0  0  0  0
  1  4  1  0  0  0  0
  2  4  1  0  0  0  0
  2  5  2  0  0  0  0
  2  6  1  0  0  0  0
  3  4  1  0  0  0  0
  3  7  1  0  0  0  0
  3  8  1  0  0  0  0
  4 26  1  0  0  0  0
  6  9  1  0  0  0  0
  6 12  1  0  0  0  0
  8 10  1  0  0  0  0
  8 11  2  0  0  0  0
  9 13  1  0  0  0  0
  9 14  1  0  0  0  0
  9 15  1  0  0  0  0
 10 16  1  0  0  0  0
 10 17  1  0  0  0  0
 10 18  1  0  0  0  0
 19 20  1  0  0  0  0
 20 21  4  0  0  0  0
 20 25  4  0  0  0  0
 21 22  4  0  0  0  0
 21 26  1  0  0  0  0
 22 23  4  0  0  0  0
 22 27  1  0  0  0  0
 23 24  4  0  0  0  0
 23 28  1  0  0  0  0
 24 25  4  0  0  0  0
 24 29  1  0  0  0  0
 25 30  1  0  0  0  0
 26 31  1  0  0  0  0
 26 32  1  0  0  0  0
M  END
> <BCLConfClusterSize>
1

> <ConfClashScore>
0 

> <ConfOneFourInteractionScore>
-0.957074 

> <ConfScore>
-0.000323694 

> <ConfScorePBest>
0.00450159 

> <ConfTolerance>
0.456061 

> <RosettaParamsInstructions>
M  ROOT 3
M  POLY_N_BB 3
M  POLY_CA_BB 4
M  POLY_C_BB 2
M  POLY_O_BB 5
M  POLY_IGNORE 9 10 11 12 13 14 15 16 17 18 
M  POLY_UPPER 6
M  POLY_LOWER 8
M  POLY_CHG 0
M  POLY_PROPERTIES ALPHA_AA L_AA PROTEIN AROMATIC POLYMER 
M  END

$$$$



 32 32  0  0  0  0  0  0  0  0999 V2000
   -0.2529    1.6501    2.7273 H   0  0  0  1  0  0  0  0  0  0  0  0
    0.8802    3.3645    2.3477 C   0  0  0  1  0  0  0  0  0  0  0  0
   -1.1519    3.1991    3.7453 N   0  0  0  1  0  0  0  0  0  0  0  0
   -0.4638    2.6828    2.5429 C   0  0  0  1  0  0  0  0  0  0  0  0
    1.8093    2.7803    1.7917 O   0  0  0  1  0  0  0  0  0  0  0  0
    1.0216    4.6147    2.7973 N   0  0  0  1  0  0  0  0  0  0  0  0
   -2.0910    3.4630    3.6516 H   0  0  0  1  0  0  0  0  0  0  0  0
   -0.5843    3.3342    4.9618 C   0  0  0  1  0  0  0  0  0  0  0  0
    2.2638    5.3583    2.6493 C   0  0  0  1  0  0  0  0  0  0  0  0
   -1.4033    3.9791    6.0629 C   0  0  0  1  0  0  0  0  0  0  0  0
    0.5638    2.9463    5.1740 O   0  0  0  1  0  0  0  0  0  0  0  0
    0.2624    5.0460    3.2423 H   0  0  0  1  0  0  0  0  0  0  0  0
    3.0717    4.7894    3.0597 H   0  0  0  1  0  0  0  0  0  0  0  0
    2.1849    6.2908    3.1680 H   0  0  0  1  0  0  0  0  0  0  0  0
    2.4480    5.5414    1.6113 H   0  0  0  1  0  0  0  0  0  0  0  0
   -2.4444    3.8911    5.8319 H   0  0  0  1  0  0  0  0  0  0  0  0
   -1.1421    5.0137    6.1420 H   0  0  0  1  0  0  0  0  0  0  0  0
   -1.2015    3.4877    6.9917 H   0  0  0  1  0  0  0  0  0  0  0  0
   -4.1392    3.2983    1.5955 F   0  0  0  1  0  0  0  0  0  0  0  0
   -3.3303    4.3095    1.2252 C   0  0  0  1  0  0  0  0  0  0  0  0
   -1.9735    4.0910    1.0783 C   0  0  0  1  0  0  0  0  0  0  0  0
   -1.1417    5.1304    0.6920 C   0  0  0  1  0  0  0  0  0  0  0  0
   -1.6684    6.3867    0.4589 C   0  0  0  1  0  0  0  0  0  0  0  0
   -3.0292    6.6061    0.6062 C   0  0  0  1  0  0  0  0  0  0  0  0
   -3.8585    5.5697    0.9914 C   0  0  0  1  0  0  0  0  0  0  0  0
   -1.3970    2.7194    1.3387 C   0  0  0  1  0  0  0  0  0  0  0  0
   -0.1213    4.9649    0.5776 H   0  0  0  1  0  0  0  0  0  0  0  0
   -1.0438    7.1675    0.1730 H   0  0  0  1  0  0  0  0  0  0  0  0
   -3.4261    7.5506    0.4269 H   0  0  0  1  0  0  0  0  0  0  0  0
   -4.8788    5.7352    1.1058 H   0  0  0  1  0  0  0  0  0  0  0  0
   -2.2037    2.0382    1.5122 H   0  0  0  1  0  0  0  0  0  0  0  0
   -0.8486    2.4105    0.4734 H   0  0  0  1  0  0  0  0  0  0  0  0
  1  4  1  0  0  0  0
  2  4  1  0  0  0  0
  2  5  2  0  0  0  0
  2  6  1  0  0  0  0
  3  4  1  0  0  0  0
  3  7  1  0  0  0  0
  3  8  1  0  0  0  0
  4 26  1  0  0  0  0
  6  9  1  0  0  0  0
  6 12  1  0  0  0  0
  8 10  1  0  0  0  0
  8 11  2  0  0  0  0
  9 13  1  0  0  0  0
  9 14  1  0  0  0  0
  9 15  1  0  0  0  0
 10 16  1  0  0  0  0
 10 17  1  0  0  0  0
 10 18  1  0  0  0  0
 19 20  1  0  0  0  0
 20 21  4  0  0  0  0
 20 25  4  0  0  0  0
 21 22  4  0  0  0  0
 21 26  1  0  0  0  0
 22 23  4  0  0  0  0
 22 27  1  0  0  0  0
 23 24  4  0  0  0  0
 23 28  1  0  0  0  0
 24 25  4  0  0  0  0
 24 29  1  0  0  0  0
 25 30  1  0  0  0  0
 26 31  1  0  0  0  0
 26 32  1  0  0  0  0
M  END
> <BCLConfClusterSize>
1

> <ConfClashScore>
0 

> <ConfOneFourInteractionScore>
-0.950605 

> <ConfScore>
0.00181977 

> <ConfScorePBest>
0.00447311 

> <ConfTolerance>
0.464889 

> <RosettaParamsInstructions>
M  ROOT 3
M  POLY_N_BB 3
M  POLY_CA_BB 4
M  POLY_C_BB 2
M  POLY_O_BB 5
M  POLY_IGNORE 9 10 11 12 13 14 15 16 17 18 
M  POLY_UPPER 6
M  POLY_LOWER 8
M  POLY_CHG 0
M  POLY_PROPERTIES ALPHA_AA L_AA PROTEIN AROMATIC POLYMER 
M  END

$$$$



 32 32  0  0  0  0  0  0  0  0999 V2000
   -0.6570    2.1811   -0.5787 H   0  0  0  1  0  0  0  0  0  0  0  0
   -1.0449    0.3977    0.4963 C   0  0  0  1  0  0  0  0  0  0  0  0
   -2.7068    1.9272   -0.5634 N   0  0  0  1  0  0  0  0  0  0  0  0
   -1.4114    1.8260    0.0919 C   0  0  0  1  0  0  0  0  0  0  0  0
    0.0688    0.1489    0.9561 O   0  0  0  1  0  0  0  0  0  0  0  0
   -1.9449   -0.5566    0.2429 N   0  0  0  1  0  0  0  0  0  0  0  0
   -3.4807    1.4892   -0.1514 H   0  0  0  1  0  0  0  0  0  0  0  0
   -2.8795    2.6030   -1.7182 C   0  0  0  1  0  0  0  0  0  0  0  0
   -1.6497   -1.9705    0.4209 C   0  0  0  1  0  0  0  0  0  0  0  0
   -4.2785    2.6774   -2.2983 C   0  0  0  1  0  0  0  0  0  0  0  0
   -1.9314    3.1437   -2.2860 O   0  0  0  1  0  0  0  0  0  0  0  0
   -2.8348   -0.2955   -0.0738 H   0  0  0  1  0  0  0  0  0  0  0  0
   -1.6717   -2.2116    1.4632 H   0  0  0  1  0  0  0  0  0  0  0  0
   -0.6785   -2.1843    0.0261 H   0  0  0  1  0  0  0  0  0  0  0  0
   -2.3819   -2.5553   -0.0957 H   0  0  0  1  0  0  0  0  0  0  0  0
   -4.9189    1.9988   -1.7746 H   0  0  0  1  0  0  0  0  0  0  0  0
   -4.2493    2.4122   -3.3345 H   0  0  0  1  0  0  0  0  0  0  0  0
   -4.6545    3.6739   -2.1952 H   0  0  0  1  0  0  0  0  0  0  0  0
   -4.1397    3.3020    1.6037 F   0  0  0  1  0  0  0  0  0  0  0  0
   -3.3318    4.3115    1.2268 C   0  0  0  1  0  0  0  0  0  0  0  0
   -1.9715    4.0914    1.0765 C   0  0  0  1  0  0  0  0  0  0  0  0
   -1.1417    5.1287    0.6949 C   0  0  0  1  0  0  0  0  0  0  0  0
   -1.6704    6.3879    0.4572 C   0  0  0  1  0  0  0  0  0  0  0  0
   -3.0268    6.6072    0.6071 C   0  0  0  1  0  0  0  0  0  0  0  0
   -3.8592    5.5669    0.9899 C   0  0  0  1  0  0  0  0  0  0  0  0
   -1.3961    2.7179    1.3298 C   0  0  0  1  0  0  0  0  0  0  0  0
   -0.1206    4.9645    0.5860 H   0  0  0  1  0  0  0  0  0  0  0  0
   -1.0466    7.1674    0.1662 H   0  0  0  1  0  0  0  0  0  0  0  0
   -3.4229    7.5529    0.4327 H   0  0  0  1  0  0  0  0  0  0  0  0
   -4.8803    5.7311    1.0988 H   0  0  0  1  0  0  0  0  0  0  0  0
   -0.3836    2.8281    1.6577 H   0  0  0  1  0  0  0  0  0  0  0  0
   -1.9709    2.2443    2.0980 H   0  0  0  1  0  0  0  0  0  0  0  0
  1  4  1  0  0  0  0
  2  4  1  0  0  0  0
  2  5  2  0  0  0  0
  2  6  1  0  0  0  0
  3  4  1  0  0  0  0
  3  7  1  0  0  0  0
  3  8  1  0  0  0  0
  4 26  1  0  0  0  0
  6  9  1  0  0  0  0
  6 12  1  0  0  0  0
  8 10  1  0  0  0  0
  8 11  2  0  0  0  0
  9 13  1  0  0  0  0
  9 14  1  0  0  0  0
  9 15  1  0  0  0  0
 10 16  1  0  0  0  0
 10 17  1  0  0  0  0
 10 18  1  0  0  0  0
 19 20  1  0  0  0  0
 20 21  4  0  0  0  0
 20 25  4  0  0  0  0
 21 22  4  0  0  0  0
 21 26  1  0  0  0  0
 22 23  4  0  0  0  0
 22 27  1  0  0  0  0
 23 24  4  0  0  0  0
 23 28  1  0  0  0  0
 24 25  4  0  0  0  0
 24 29  1  0  0  0  0
 25 30  1  0  0  0  0
 26 31  1  0  0  0  0
 26 32  1  0  0  0  0
M  END
> <BCLConfClusterSize>
1

> <ConfClashScore>
0 

> <ConfOneFourInteractionScore>
-0.932828 

> <ConfScore>
0.00999608 

> <ConfScorePBest>
0.00444463 

> <ConfTolerance>
0.367234 

> <RosettaParamsInstructions>
M  ROOT 3
M  POLY_N_BB 3
M  POLY_CA_BB 4
M  POLY_C_BB 2
M  POLY_O_BB 5
M  POLY_IGNORE 9 10 11 12 13 14 15 16 17 18 
M  POLY_UPPER 6
M  POLY_LOWER 8
M  POLY_CHG 0
M  POLY_PROPERTIES ALPHA_AA L_AA PROTEIN AROMATIC POLYMER 
M  END

$$$$



 32 32  0  0  0  0  0  0  0  0999 V2000
   -0.8998    2.3530   -0.6546 H   0  0  0  1  0  0  0  0  0  0  0  0
   -0.7098    0.4891    0.2470 C   0  0  0  1  0  0  0  0  0  0  0  0
   -2.8063    1.6479   -0.4213 N   0  0  0  1  0  0  0  0  0  0  0  0
   -1.4362    1.8185    0.1013 C   0  0  0  1  0  0  0  0  0  0  0  0
   -1.3479   -0.5349    0.4876 O   0  0  0  1  0  0  0  0  0  0  0  0
    0.6125    0.4938    0.0156 N   0  0  0  1  0  0  0  0  0  0  0  0
   -3.3487    0.9246   -0.0433 H   0  0  0  1  0  0  0  0  0  0  0  0
   -3.3672    2.4119   -1.3789 C   0  0  0  1  0  0  0  0  0  0  0  0
    1.3065   -0.7848   -0.0219 C   0  0  0  1  0  0  0  0  0  0  0  0
   -4.7917    2.0035   -1.7318 C   0  0  0  1  0  0  0  0  0  0  0  0
   -2.8152    3.3491   -1.9315 O   0  0  0  1  0  0  0  0  0  0  0  0
    1.0967    1.3343   -0.1241 H   0  0  0  1  0  0  0  0  0  0  0  0
    2.2228   -0.7100    0.5256 H   0  0  0  1  0  0  0  0  0  0  0  0
    1.5185   -1.0456   -1.0377 H   0  0  0  1  0  0  0  0  0  0  0  0
    0.6885   -1.5389    0.4190 H   0  0  0  1  0  0  0  0  0  0  0  0
   -5.0955    2.5046   -2.6271 H   0  0  0  1  0  0  0  0  0  0  0  0
   -5.4486    2.2738   -0.9316 H   0  0  0  1  0  0  0  0  0  0  0  0
   -4.8315    0.9452   -1.8846 H   0  0  0  1  0  0  0  0  0  0  0  0
   -4.1397    3.3020    1.6037 F   0  0  0  1  0  0  0  0  0  0  0  0
   -3.3318    4.3116    1.2268 C   0  0  0  1  0  0  0  0  0  0  0  0
   -1.9715    4.0913    1.0765 C   0  0  0  1  0  0  0  0  0  0  0  0
   -1.1417    5.1287    0.6949 C   0  0  0  1  0  0  0  0  0  0  0  0
   -1.6704    6.3879    0.4572 C   0  0  0  1  0  0  0  0  0  0  0  0
   -3.0268    6.6072    0.6071 C   0  0  0  1  0  0  0  0  0  0  0  0
   -3.8591    5.5669    0.9899 C   0  0  0  1  0  0  0  0  0  0  0  0
   -1.3962    2.7179    1.3298 C   0  0  0  1  0  0  0  0  0  0  0  0
   -0.1205    4.9645    0.5860 H   0  0  0  1  0  0  0  0  0  0  0  0
   -1.0466    7.1674    0.1661 H   0  0  0  1  0  0  0  0  0  0  0  0
   -3.4230    7.5528    0.4327 H   0  0  0  1  0  0  0  0  0  0  0  0
   -4.8803    5.7310    1.0988 H   0  0  0  1  0  0  0  0  0  0  0  0
   -0.3776    2.8270    1.6389 H   0  0  0  1  0  0  0  0  0  0  0  0
   -1.9587    2.2519    2.1116 H   0  0  0  1  0  0  0  0  0  0  0  0
  1  4  1  0  0  0  0
  2  4  1  0  0  0  0
  2  5  2  0  0  0  0
  2  6  1  0  0  0  0
  3  4  1  0  0  0  0
  3  7  1  0  0  0  0
  3  8  1  0  0  0  0
  4 26  1  0  0  0  0
  6  9  1  0  0  0  0
  6 12  1  0  0  0  0
  8 10  1  0  0  0  0
  8 11  2  0  0  0  0
  9 13  1  0  0  0  0
  9 14  1  0  0  0  0
  9 15  1  0  0  0  0
 10 16  1  0  0  0  0
 10 17  1  0  0  0  0
 10 18  1  0  0  0  0
 19 20  1  0  0  0  0
 20 21  4  0  0  0  0
 20 25  4  0  0  0  0
 21 22  4  0  0  0  0
 21 26  1  0  0  0  0
 22 23  4  0  0  0  0
 22 27  1  0  0  0  0
 23 24  4  0  0  0  0
 23 28  1  0  0  0  0
 24 25  4  0  0  0  0
 24 29  1  0  0  0  0
 25 30  1  0  0  0  0
 26 31  1  0  0  0  0
 26 32  1  0  0  0  0
M  END
> <BCLConfClusterSize>
1

> <ConfClashScore>
0 

> <ConfOneFourInteractionScore>
-0.990503 

> <ConfScore>
0.0110062 

> <ConfScorePBest>
0.00441614 

> <ConfTolerance>
0.453794 

> <RosettaParamsInstructions>
M  ROOT 3
M  POLY_N_BB 3
M  POLY_CA_BB 4
M  POLY_C_BB 2
M  POLY_O_BB 5
M  POLY_IGNORE 9 10 11 12 13 14 15 16 17 18 
M  POLY_UPPER 6
M  POLY_LOWER 8
M  POLY_CHG 0
M  POLY_PROPERTIES ALPHA_AA L_AA PROTEIN AROMATIC POLYMER 
M  END

$$$$



 32 32  0  0  0  0  0  0  0  0999 V2000
   -2.2775    2.3870    3.2228 H   0  0  0  1  0  0  0  0  0  0  0  0
   -0.7463    0.9562    2.9580 C   0  0  0  1  0  0  0  0  0  0  0  0
   -0.4852    3.3492    3.5489 N   0  0  0  1  0  0  0  0  0  0  0  0
   -1.2868    2.3787    2.8185 C   0  0  0  1  0  0  0  0  0  0  0  0
    0.4107    0.7403    3.2793 O   0  0  0  1  0  0  0  0  0  0  0  0
   -1.6523    0.0095    2.6973 N   0  0  0  1  0  0  0  0  0  0  0  0
    0.4251    3.0875    3.8003 H   0  0  0  1  0  0  0  0  0  0  0  0
   -0.8968    4.5701    3.9024 C   0  0  0  1  0  0  0  0  0  0  0  0
   -1.2969   -1.3974    2.5867 C   0  0  0  1  0  0  0  0  0  0  0  0
    0.1011    5.4005    4.6858 C   0  0  0  1  0  0  0  0  0  0  0  0
   -2.0105    5.0097    3.6194 O   0  0  0  1  0  0  0  0  0  0  0  0
   -2.5889    0.2716    2.5765 H   0  0  0  1  0  0  0  0  0  0  0  0
   -2.0555   -1.9154    2.0380 H   0  0  0  1  0  0  0  0  0  0  0  0
   -1.2123   -1.8217    3.5653 H   0  0  0  1  0  0  0  0  0  0  0  0
   -0.3615   -1.4895    2.0754 H   0  0  0  1  0  0  0  0  0  0  0  0
   -0.2460    6.4107    4.7486 H   0  0  0  1  0  0  0  0  0  0  0  0
    1.0492    5.3796    4.1902 H   0  0  0  1  0  0  0  0  0  0  0  0
    0.2044    4.9973    5.6715 H   0  0  0  1  0  0  0  0  0  0  0  0
   -4.1397    3.3020    1.6037 F   0  0  0  1  0  0  0  0  0  0  0  0
   -3.3318    4.3115    1.2268 C   0  0  0  1  0  0  0  0  0  0  0  0
   -1.9715    4.0913    1.0765 C   0  0  0  1  0  0  0  0  0  0  0  0
   -1.1417    5.1287    0.6949 C   0  0  0  1  0  0  0  0  0  0  0  0
   -1.6705    6.3878    0.4572 C   0  0  0  1  0  0  0  0  0  0  0  0
   -3.0268    6.6072    0.6071 C   0  0  0  1  0  0  0  0  0  0  0  0
   -3.8591    5.5669    0.9899 C   0  0  0  1  0  0  0  0  0  0  0  0
   -1.3961    2.7179    1.3298 C   0  0  0  1  0  0  0  0  0  0  0  0
   -0.1205    4.9646    0.5860 H   0  0  0  1  0  0  0  0  0  0  0  0
   -1.0466    7.1674    0.1662 H   0  0  0  1  0  0  0  0  0  0  0  0
   -3.4229    7.5528    0.4327 H   0  0  0  1  0  0  0  0  0  0  0  0
   -4.8803    5.7311    1.0987 H   0  0  0  1  0  0  0  0  0  0  0  0
   -2.0273    1.9924    0.8606 H   0  0  0  1  0  0  0  0  0  0  0  0
   -0.4182    2.6734    0.8977 H   0  0  0  1  0  0  0  0  0  0  0  0
  1  4  1  0  0  0  0
  2  4  1  0  0  0  0
  2  5  2  0  0  0  0
  2  6  1  0  0  0  0
  3  4  1  0  0  0  0
  3  7  1  0  0  0  0
  3  8  1  0  0  0  0
  4 26  1  0  0  0  0
  6  9  1  0  0  0  0
  6 12  1  0  0  0  0
  8 10  1  0  0  0  0
  8 11  2  0  0  0  0
  9 13  1  0  0  0  0
  9 14  1  0  0  0  0
  9 15  1  0  0  0  0
 10 16  1  0  0  0  0
 10 17  1  0  0  0  0
 10 18  1  0  0  0  0
 19 20  1  0  0  0  0
 20 21  4  0  0  0  0
 20 25  4  0  0  0  0
 21 22  4  0  0  0  0
 21 26  1  0  0  0  0
 22 23  4  0  0  0  0
 22 27  1  0  0  0  0
 23 24  4  0  0  0  0
 23 28  1  0  0  0  0
 24 25  4  0  0  0  0
 24 29  1  0  0  0  0
 25 30  1  0  0  0  0
 26 31  1  0  0  0  0
 26 32  1  0  0  0  0
M  END
> <BCLConfClusterSize>
1

> <ConfClashScore>
0 

> <ConfOneFourInteractionScore>
-0.964131 

> <ConfScore>
0.0110062 

> <ConfScorePBest>
0.00438766 

> <ConfTolerance>
0.580874 

> <RosettaParamsInstructions>
M  ROOT 3
M  POLY_N_BB 3
M  POLY_CA_BB 4
M  POLY_C_BB 2
M  POLY_O_BB 5
M  POLY_IGNORE 9 10 11 12 13 14 15 16 17 18 
M  POLY_UPPER 6
M  POLY_LOWER 8
M  POLY_CHG 0
M  POLY_PROPERTIES ALPHA_AA L_AA PROTEIN AROMATIC POLYMER 
M  END

$$$$



 32 32  0  0  0  0  0  0  0  0999 V2000
   -0.5705    1.0605    0.3049 H   0  0  0  1  0  0  0  0  0  0  0  0
   -1.6861    2.1834   -1.0918 C   0  0  0  1  0  0  0  0  0  0  0  0
    0.5154    2.7429   -0.2100 N   0  0  0  1  0  0  0  0  0  0  0  0
   -0.7506    2.0948    0.0983 C   0  0  0  1  0  0  0  0  0  0  0  0
   -2.6409    1.4155   -1.2024 O   0  0  0  1  0  0  0  0  0  0  0  0
   -1.4410    3.1232   -2.0185 N   0  0  0  1  0  0  0  0  0  0  0  0
    0.7642    3.5274    0.3220 H   0  0  0  1  0  0  0  0  0  0  0  0
    1.3641    2.3489   -1.1637 C   0  0  0  1  0  0  0  0  0  0  0  0
   -2.3403    3.3654   -3.1368 C   0  0  0  1  0  0  0  0  0  0  0  0
    2.6752    3.1074   -1.2331 C   0  0  0  1  0  0  0  0  0  0  0  0
    1.1156    1.4330   -1.9433 O   0  0  0  1  0  0  0  0  0  0  0  0
   -0.6283    3.6650   -1.9392 H   0  0  0  1  0  0  0  0  0  0  0  0
   -3.3536    3.3251   -2.7955 H   0  0  0  1  0  0  0  0  0  0  0  0
   -2.1867    2.6173   -3.8862 H   0  0  0  1  0  0  0  0  0  0  0  0
   -2.1419    4.3318   -3.5509 H   0  0  0  1  0  0  0  0  0  0  0  0
    2.4803    4.1397   -1.4360 H   0  0  0  1  0  0  0  0  0  0  0  0
    3.2823    2.6991   -2.0139 H   0  0  0  1  0  0  0  0  0  0  0  0
    3.1883    3.0186   -0.2983 H   0  0  0  1  0  0  0  0  0  0  0  0
   -4.1392    3.2983    1.5955 F   0  0  0  1  0  0  0  0  0  0  0  0
   -3.3303    4.3095    1.2252 C   0  0  0  1  0  0  0  0  0  0  0  0
   -1.9735    4.0910    1.0783 C   0  0  0  1  0  0  0  0  0  0  0  0
   -1.1417    5.1304    0.6920 C   0  0  0  1  0  0  0  0  0  0  0  0
   -1.6684    6.3867    0.4589 C   0  0  0  1  0  0  0  0  0  0  0  0
   -3.0292    6.6061    0.6062 C   0  0  0  1  0  0  0  0  0  0  0  0
   -3.8585    5.5697    0.9914 C   0  0  0  1  0  0  0  0  0  0  0  0
   -1.3970    2.7194    1.3387 C   0  0  0  1  0  0  0  0  0  0  0  0
   -0.1213    4.9649    0.5776 H   0  0  0  1  0  0  0  0  0  0  0  0
   -1.0438    7.1675    0.1730 H   0  0  0  1  0  0  0  0  0  0  0  0
   -3.4261    7.5506    0.4269 H   0  0  0  1  0  0  0  0  0  0  0  0
   -4.8788    5.7352    1.1058 H   0  0  0  1  0  0  0  0  0  0  0  0
   -0.6545    2.8018    2.1047 H   0  0  0  1  0  0  0  0  0  0  0  0
   -2.1846    2.0767    1.6725 H   0  0  0  1  0  0  0  0  0  0  0  0
  1  4  1  0  0  0  0
  2  4  1  0  0  0  0
  2  5  2  0  0  0  0
  2  6  1  0  0  0  0
  3  4  1  0  0  0  0
  3  7  1  0  0  0  0
  3  8  1  0  0  0  0
  4 26  1  0  0  0  0
  6  9  1  0  0  0  0
  6 12  1  0  0  0  0
  8 10  1  0  0  0  0
  8 11  2  0  0  0  0
  9 13  1  0  0  0  0
  9 14  1  0  0  0  0
  9 15  1  0  0  0  0
 10 16  1  0  0  0  0
 10 17  1  0  0  0  0
 10 18  1  0  0  0  0
 19 20  1  0  0  0  0
 20 21  4  0  0  0  0
 20 25  4  0  0  0  0
 21 22  4  0  0  0  0
 21 26  1  0  0  0  0
 22 23  4  0  0  0  0
 22 27  1  0  0  0  0
 23 24  4  0  0  0  0
 23 28  1  0  0  0  0
 24 25  4  0  0  0  0
 24 29  1  0  0  0  0
 25 30  1  0  0  0  0
 26 31  1  0  0  0  0
 26 32  1  0  0  0  0
M  END
> <BCLConfClusterSize>
1

> <ConfClashScore>
0 

> <ConfOneFourInteractionScore>
-0.957074 

> <ConfScore>
0.0142145 

> <ConfScorePBest>
0.00435918 

> <ConfTolerance>
0.542055 

> <RosettaParamsInstructions>
M  ROOT 3
M  POLY_N_BB 3
M  POLY_CA_BB 4
M  POLY_C_BB 2
M  POLY_O_BB 5
M  POLY_IGNORE 9 10 11 12 13 14 15 16 17 18 
M  POLY_UPPER 6
M  POLY_LOWER 8
M  POLY_CHG 0
M  POLY_PROPERTIES ALPHA_AA L_AA PROTEIN AROMATIC POLYMER 
M  END

$$$$



 32 32  0  0  0  0  0  0  0  0999 V2000
   -1.7981    2.1023   -0.6501 H   0  0  0  1  0  0  0  0  0  0  0  0
   -0.9494    0.4422    0.3657 C   0  0  0  1  0  0  0  0  0  0  0  0
   -3.2402    1.2807    0.5824 N   0  0  0  1  0  0  0  0  0  0  0  0
   -1.8632    1.6719    0.3273 C   0  0  0  1  0  0  0  0  0  0  0  0
   -0.0141    0.3485   -0.4281 O   0  0  0  1  0  0  0  0  0  0  0  0
   -1.1734   -0.4430    1.3381 N   0  0  0  1  0  0  0  0  0  0  0  0
   -3.5880    1.2849    1.4986 H   0  0  0  1  0  0  0  0  0  0  0  0
   -4.0357    0.9138   -0.4339 C   0  0  0  1  0  0  0  0  0  0  0  0
   -0.3749   -1.6503    1.4894 C   0  0  0  1  0  0  0  0  0  0  0  0
   -5.4853    0.6520   -0.0745 C   0  0  0  1  0  0  0  0  0  0  0  0
   -3.6333    0.7927   -1.5880 O   0  0  0  1  0  0  0  0  0  0  0  0
   -1.9009   -0.2745    1.9727 H   0  0  0  1  0  0  0  0  0  0  0  0
    0.3679   -1.6860    0.7201 H   0  0  0  1  0  0  0  0  0  0  0  0
   -1.0089   -2.5088    1.4128 H   0  0  0  1  0  0  0  0  0  0  0  0
    0.1033   -1.6437    2.4466 H   0  0  0  1  0  0  0  0  0  0  0  0
   -5.5333   -0.0754    0.7087 H   0  0  0  1  0  0  0  0  0  0  0  0
   -6.0050    0.2845   -0.9346 H   0  0  0  1  0  0  0  0  0  0  0  0
   -5.9405    1.5622    0.2560 H   0  0  0  1  0  0  0  0  0  0  0  0
   -4.1390    3.2984    1.5955 F   0  0  0  1  0  0  0  0  0  0  0  0
   -3.3302    4.3097    1.2252 C   0  0  0  1  0  0  0  0  0  0  0  0
   -1.9734    4.0909    1.0783 C   0  0  0  1  0  0  0  0  0  0  0  0
   -1.1418    5.1304    0.6920 C   0  0  0  1  0  0  0  0  0  0  0  0
   -1.6684    6.3868    0.4589 C   0  0  0  1  0  0  0  0  0  0  0  0
   -3.0292    6.6061    0.6062 C   0  0  0  1  0  0  0  0  0  0  0  0
   -3.8585    5.5697    0.9914 C   0  0  0  1  0  0  0  0  0  0  0  0
   -1.3970    2.7192    1.3387 C   0  0  0  1  0  0  0  0  0  0  0  0
   -0.1214    4.9648    0.5776 H   0  0  0  1  0  0  0  0  0  0  0  0
   -1.0437    7.1676    0.1729 H   0  0  0  1  0  0  0  0  0  0  0  0
   -3.4261    7.5505    0.4269 H   0  0  0  1  0  0  0  0  0  0  0  0
   -4.8789    5.7352    1.1058 H   0  0  0  1  0  0  0  0  0  0  0  0
   -0.3299    2.7842    1.2944 H   0  0  0  1  0  0  0  0  0  0  0  0
   -1.6953    2.4046    2.3169 H   0  0  0  1  0  0  0  0  0  0  0  0
  1  4  1  0  0  0  0
  2  4  1  0  0  0  0
  2  5  2  0  0  0  0
  2  6  1  0  0  0  0
  3  4  1  0  0  0  0
  3  7  1  0  0  0  0
  3  8  1  0  0  0  0
  4 26  1  0  0  0  0
  6  9  1  0  0  0  0
  6 12  1  0  0  0  0
  8 10  1  0  0  0  0
  8 11  2  0  0  0  0
  9 13  1  0  0  0  0
  9 14  1  0  0  0  0
  9 15  1  0  0  0  0
 10 16  1  0  0  0  0
 10 17  1  0  0  0  0
 10 18  1  0  0  0  0
 19 20  1  0  0  0  0
 20 21  4  0  0  0  0
 20 25  4  0  0  0  0
 21 22  4  0  0  0  0
 21 26  1  0  0  0  0
 22 23  4  0  0  0  0
 22 27  1  0  0  0  0
 23 24  4  0  0  0  0
 23 28  1  0  0  0  0
 24 25  4  0  0  0  0
 24 29  1  0  0  0  0
 25 30  1  0  0  0  0
 26 31  1  0  0  0  0
 26 32  1  0  0  0  0
M  END
> <BCLConfClusterSize>
1

> <ConfClashScore>
0 

> <ConfOneFourInteractionScore>
-0.944706 

> <ConfScore>
0.0150562 

> <ConfScorePBest>
0.0043307 

> <ConfTolerance>
0.448186 

> <RosettaParamsInstructions>
M  ROOT 3
M  POLY_N_BB 3
M  POLY_CA_BB 4
M  POLY_C_BB 2
M  POLY_O_BB 5
M  POLY_IGNORE 9 10 11 12 13 14 15 16 17 18 
M  POLY_UPPER 6
M  POLY_LOWER 8
M  POLY_CHG 0
M  POLY_PROPERTIES ALPHA_AA L_AA PROTEIN AROMATIC POLYMER 
M  END

$$$$



 32 32  0  0  0  0  0  0  0  0999 V2000
   -1.6773    2.0337   -0.6321 H   0  0  0  1  0  0  0  0  0  0  0  0
   -0.9300    0.4145    0.4852 C   0  0  0  1  0  0  0  0  0  0  0  0
   -3.2152    1.2346    0.4969 N   0  0  0  1  0  0  0  0  0  0  0  0
   -1.8137    1.6396    0.3533 C   0  0  0  1  0  0  0  0  0  0  0  0
   -1.0360   -0.3433    1.4355 O   0  0  0  1  0  0  0  0  0  0  0  0
   -0.0395    0.2287   -0.5020 N   0  0  0  1  0  0  0  0  0  0  0  0
   -3.4909    0.8536    1.3567 H   0  0  0  1  0  0  0  0  0  0  0  0
   -4.1449    1.3457   -0.4562 C   0  0  0  1  0  0  0  0  0  0  0  0
    0.7858   -0.9667   -0.5897 C   0  0  0  1  0  0  0  0  0  0  0  0
   -5.4848    0.6884   -0.1330 C   0  0  0  1  0  0  0  0  0  0  0  0
   -3.9425    1.8664   -1.5523 O   0  0  0  1  0  0  0  0  0  0  0  0
    0.0582    0.9222   -1.1875 H   0  0  0  1  0  0  0  0  0  0  0  0
    1.5025   -0.9650    0.2048 H   0  0  0  1  0  0  0  0  0  0  0  0
    1.2962   -0.9792   -1.5301 H   0  0  0  1  0  0  0  0  0  0  0  0
    0.1655   -1.8348   -0.5084 H   0  0  0  1  0  0  0  0  0  0  0  0
   -5.9147    1.1578    0.7271 H   0  0  0  1  0  0  0  0  0  0  0  0
   -5.3324   -0.3516    0.0674 H   0  0  0  1  0  0  0  0  0  0  0  0
   -6.1460    0.7983   -0.9670 H   0  0  0  1  0  0  0  0  0  0  0  0
   -4.1391    3.2985    1.5955 F   0  0  0  1  0  0  0  0  0  0  0  0
   -3.3302    4.3097    1.2252 C   0  0  0  1  0  0  0  0  0  0  0  0
   -1.9734    4.0909    1.0783 C   0  0  0  1  0  0  0  0  0  0  0  0
   -1.1417    5.1304    0.6920 C   0  0  0  1  0  0  0  0  0  0  0  0
   -1.6684    6.3868    0.4589 C   0  0  0  1  0  0  0  0  0  0  0  0
   -3.0292    6.6060    0.6062 C   0  0  0  1  0  0  0  0  0  0  0  0
   -3.8585    5.5697    0.9914 C   0  0  0  1  0  0  0  0  0  0  0  0
   -1.3970    2.7192    1.3387 C   0  0  0  1  0  0  0  0  0  0  0  0
   -0.1214    4.9649    0.5776 H   0  0  0  1  0  0  0  0  0  0  0  0
   -1.0438    7.1677    0.1729 H   0  0  0  1  0  0  0  0  0  0  0  0
   -3.4261    7.5504    0.4269 H   0  0  0  1  0  0  0  0  0  0  0  0
   -4.8789    5.7352    1.1058 H   0  0  0  1  0  0  0  0  0  0  0  0
   -0.3303    2.7985    1.3099 H   0  0  0  1  0  0  0  0  0  0  0  0
   -1.7060    2.4114    2.3158 H   0  0  0  1  0  0  0  0  0  0  0  0
  1  4  1  0  0  0  0
  2  4  1  0  0  0  0
  2  5  2  0  0  0  0
  2  6  1  0  0  0  0
  3  4  1  0  0  0  0
  3  7  1  0  0  0  0
  3  8  1  0  0  0  0
  4 26  1  0  0  0  0
  6  9  1  0  0  0  0
  6 12  1  0  0  0  0
  8 10  1  0  0  0  0
  8 11  2  0  0  0  0
  9 13  1  0  0  0  0
  9 14  1  0  0  0  0
  9 15  1  0  0  0  0
 10 16  1  0  0  0  0
 10 17  1  0  0  0  0
 10 18  1  0  0  0  0
 19 20  1  0  0  0  0
 20 21  4  0  0  0  0
 20 25  4  0  0  0  0
 21 22  4  0  0  0  0
 21 26  1  0  0  0  0
 22 23  4  0  0  0  0
 22 27  1  0  0  0  0
 23 24  4  0  0  0  0
 23 28  1  0  0  0  0
 24 25  4  0  0  0  0
 24 29  1  0  0  0  0
 25 30  1  0  0  0  0
 26 31  1  0  0  0  0
 26 32  1  0  0  0  0
M  END
> <BCLConfClusterSize>
1

> <ConfClashScore>
0 

> <ConfOneFourInteractionScore>
-0.978947 

> <ConfScore>
0.0183308 

> <ConfScorePBest>
0.00430222 

> <ConfTolerance>
0.524491 

> <RosettaParamsInstructions>
M  ROOT 3
M  POLY_N_BB 3
M  POLY_CA_BB 4
M  POLY_C_BB 2
M  POLY_O_BB 5
M  POLY_IGNORE 9 10 11 12 13 14 15 16 17 18 
M  POLY_UPPER 6
M  POLY_LOWER 8
M  POLY_CHG 0
M  POLY_PROPERTIES ALPHA_AA L_AA PROTEIN AROMATIC POLYMER 
M  END

$$$$



 32 32  0  0  0  0  0  0  0  0999 V2000
   -3.1333    1.5607    1.5424 H   0  0  0  1  0  0  0  0  0  0  0  0
   -2.7829    1.6307   -0.5242 C   0  0  0  1  0  0  0  0  0  0  0  0
   -1.5659    0.2889    1.1210 N   0  0  0  1  0  0  0  0  0  0  0  0
   -2.2756    1.5542    0.9027 C   0  0  0  1  0  0  0  0  0  0  0  0
   -3.7323    2.3525   -0.8265 O   0  0  0  1  0  0  0  0  0  0  0  0
   -2.1351    0.8709   -1.4120 N   0  0  0  1  0  0  0  0  0  0  0  0
   -0.6309    0.3379    1.4103 H   0  0  0  1  0  0  0  0  0  0  0  0
   -2.1184   -0.9712    0.9487 C   0  0  0  1  0  0  0  0  0  0  0  0
   -2.4247    0.8246   -2.8374 C   0  0  0  1  0  0  0  0  0  0  0  0
   -1.2832   -2.1829    1.2535 C   0  0  0  1  0  0  0  0  0  0  0  0
   -3.2673   -1.0541    0.5544 O   0  0  0  1  0  0  0  0  0  0  0  0
   -1.4104    0.3020   -1.0782 H   0  0  0  1  0  0  0  0  0  0  0  0
   -2.9229    1.7252   -3.1301 H   0  0  0  1  0  0  0  0  0  0  0  0
   -3.0542   -0.0150   -3.0462 H   0  0  0  1  0  0  0  0  0  0  0  0
   -1.5097    0.7297   -3.3841 H   0  0  0  1  0  0  0  0  0  0  0  0
   -0.6305   -2.3833    0.4296 H   0  0  0  1  0  0  0  0  0  0  0  0
   -1.9228   -3.0254    1.4146 H   0  0  0  1  0  0  0  0  0  0  0  0
   -0.7015   -2.0027    2.1333 H   0  0  0  1  0  0  0  0  0  0  0  0
   -4.1397    3.3020    1.6037 F   0  0  0  1  0  0  0  0  0  0  0  0
   -3.3318    4.3115    1.2268 C   0  0  0  1  0  0  0  0  0  0  0  0
   -1.9715    4.0914    1.0765 C   0  0  0  1  0  0  0  0  0  0  0  0
   -1.1417    5.1287    0.6949 C   0  0  0  1  0  0  0  0  0  0  0  0
   -1.6704    6.3879    0.4572 C   0  0  0  1  0  0  0  0  0  0  0  0
   -3.0268    6.6072    0.6071 C   0  0  0  1  0  0  0  0  0  0  0  0
   -3.8592    5.5669    0.9899 C   0  0  0  1  0  0  0  0  0  0  0  0
   -1.3961    2.7179    1.3298 C   0  0  0  1  0  0  0  0  0  0  0  0
   -0.1206    4.9645    0.5860 H   0  0  0  1  0  0  0  0  0  0  0  0
   -1.0466    7.1674    0.1662 H   0  0  0  1  0  0  0  0  0  0  0  0
   -3.4229    7.5529    0.4327 H   0  0  0  1  0  0  0  0  0  0  0  0
   -4.8803    5.7311    1.0988 H   0  0  0  1  0  0  0  0  0  0  0  0
   -0.4705    2.6447    0.7980 H   0  0  0  1  0  0  0  0  0  0  0  0
   -1.2130    2.6253    2.3799 H   0  0  0  1  0  0  0  0  0  0  0  0
  1  4  1  0  0  0  0
  2  4  1  0  0  0  0
  2  5  2  0  0  0  0
  2  6  1  0  0  0  0
  3  4  1  0  0  0  0
  3  7  1  0  0  0  0
  3  8  1  0  0  0  0
  4 26  1  0  0  0  0
  6  9  1  0  0  0  0
  6 12  1  0  0  0  0
  8 10  1  0  0  0  0
  8 11  2  0  0  0  0
  9 13  1  0  0  0  0
  9 14  1  0  0  0  0
  9 15  1  0  0  0  0
 10 16  1  0  0  0  0
 10 17  1  0  0  0  0
 10 18  1  0  0  0  0
 19 20  1  0  0  0  0
 20 21  4  0  0  0  0
 20 25  4  0  0  0  0
 21 22  4  0  0  0  0
 21 26  1  0  0  0  0
 22 23  4  0  0  0  0
 22 27  1  0  0  0  0
 23 24  4  0  0  0  0
 23 28  1  0  0  0  0
 24 25  4  0  0  0  0
 24 29  1  0  0  0  0
 25 30  1  0  0  0  0
 26 31  1  0  0  0  0
 26 32  1  0  0  0  0
M  END
> <BCLConfClusterSize>
1

> <ConfClashScore>
0 

> <ConfOneFourInteractionScore>
-0.960318 

> <ConfScore>
0.0211323 

> <ConfScorePBest>
0.00427374 

> <ConfTolerance>
0.781967 

> <RosettaParamsInstructions>
M  ROOT 3
M  POLY_N_BB 3
M  POLY_CA_BB 4
M  POLY_C_BB 2
M  POLY_O_BB 5
M  POLY_IGNORE 9 10 11 12 13 14 15 16 17 18 
M  POLY_UPPER 6
M  POLY_LOWER 8
M  POLY_CHG 0
M  POLY_PROPERTIES ALPHA_AA L_AA PROTEIN AROMATIC POLYMER 
M  END

$$$$



 32 32  0  0  0  0  0  0  0  0999 V2000
    0.6166    3.2840    1.2303 H   0  0  0  1  0  0  0  0  0  0  0  0
    0.6434    1.1944    1.0797 C   0  0  0  1  0  0  0  0  0  0  0  0
    0.0623    2.7785   -0.6802 N   0  0  0  1  0  0  0  0  0  0  0  0
    0.0026    2.5416    0.7647 C   0  0  0  1  0  0  0  0  0  0  0  0
    0.1857    0.1474    0.6236 O   0  0  0  1  0  0  0  0  0  0  0  0
    1.7182    1.2340    1.8724 N   0  0  0  1  0  0  0  0  0  0  0  0
   -0.5068    2.2426   -1.2712 H   0  0  0  1  0  0  0  0  0  0  0  0
    0.8736    3.7086   -1.2251 C   0  0  0  1  0  0  0  0  0  0  0  0
    2.4991    0.0742    2.2758 C   0  0  0  1  0  0  0  0  0  0  0  0
    0.9518    3.7881   -2.7329 C   0  0  0  1  0  0  0  0  0  0  0  0
    1.5315    4.4709   -0.5181 O   0  0  0  1  0  0  0  0  0  0  0  0
    2.0019    2.1102    2.2075 H   0  0  0  1  0  0  0  0  0  0  0  0
    1.9112   -0.5458    2.9199 H   0  0  0  1  0  0  0  0  0  0  0  0
    3.3760    0.3985    2.7963 H   0  0  0  1  0  0  0  0  0  0  0  0
    2.7844   -0.4828    1.4079 H   0  0  0  1  0  0  0  0  0  0  0  0
    1.0176    2.8006   -3.1397 H   0  0  0  1  0  0  0  0  0  0  0  0
    1.8183    4.3485   -3.0159 H   0  0  0  1  0  0  0  0  0  0  0  0
    0.0749    4.2714   -3.1103 H   0  0  0  1  0  0  0  0  0  0  0  0
   -4.1392    3.2983    1.5955 F   0  0  0  1  0  0  0  0  0  0  0  0
   -3.3303    4.3095    1.2252 C   0  0  0  1  0  0  0  0  0  0  0  0
   -1.9735    4.0910    1.0783 C   0  0  0  1  0  0  0  0  0  0  0  0
   -1.1417    5.1304    0.6920 C   0  0  0  1  0  0  0  0  0  0  0  0
   -1.6684    6.3867    0.4589 C   0  0  0  1  0  0  0  0  0  0  0  0
   -3.0292    6.6061    0.6062 C   0  0  0  1  0  0  0  0  0  0  0  0
   -3.8585    5.5697    0.9914 C   0  0  0  1  0  0  0  0  0  0  0  0
   -1.3970    2.7194    1.3387 C   0  0  0  1  0  0  0  0  0  0  0  0
   -0.1213    4.9649    0.5776 H   0  0  0  1  0  0  0  0  0  0  0  0
   -1.0438    7.1675    0.1730 H   0  0  0  1  0  0  0  0  0  0  0  0
   -3.4261    7.5506    0.4269 H   0  0  0  1  0  0  0  0  0  0  0  0
   -4.8788    5.7352    1.1058 H   0  0  0  1  0  0  0  0  0  0  0  0
   -1.3537    2.5633    2.3964 H   0  0  0  1  0  0  0  0  0  0  0  0
   -2.0419    1.9893    0.8960 H   0  0  0  1  0  0  0  0  0  0  0  0
  1  4  1  0  0  0  0
  2  4  1  0  0  0  0
  2  5  2  0  0  0  0
  2  6  1  0  0  0  0
  3  4  1  0  0  0  0
  3  7  1  0  0  0  0
  3  8  1  0  0  0  0
  4 26  1  0  0  0  0
  6  9  1  0  0  0  0
  6 12  1  0  0  0  0
  8 10  1  0  0  0  0
  8 11  2  0  0  0  0
  9 13  1  0  0  0  0
  9 14  1  0  0  0  0
  9 15  1  0  0  0  0
 10 16  1  0  0  0  0
 10 17  1  0  0  0  0
 10 18  1  0  0  0  0
 19 20  1  0  0  0  0
 20 21  4  0  0  0  0
 20 25  4  0  0  0  0
 21 22  4  0  0  0  0
 21 26  1  0  0  0  0
 22 23  4  0  0  0  0
 22 27  1  0  0  0  0
 23 24  4  0  0  0  0
 23 28  1  0  0  0  0
 24 25  4  0  0  0  0
 24 29  1  0  0  0  0
 25 30  1  0  0  0  0
 26 31  1  0  0  0  0
 26 32  1  0  0  0  0
M  END
> <BCLConfClusterSize>
1

> <ConfClashScore>
0 

> <ConfOneFourInteractionScore>
-0.978366 

> <ConfScore>
0.0233117 

> <ConfScorePBest>
0.00424526 

> <ConfTolerance>
0.483344 

> <RosettaParamsInstructions>
M  ROOT 3
M  POLY_N_BB 3
M  POLY_CA_BB 4
M  POLY_C_BB 2
M  POLY_O_BB 5
M  POLY_IGNORE 9 10 11 12 13 14 15 16 17 18 
M  POLY_UPPER 6
M  POLY_LOWER 8
M  POLY_CHG 0
M  POLY_PROPERTIES ALPHA_AA L_AA PROTEIN AROMATIC POLYMER 
M  END

$$$$



 32 32  0  0  0  0  0  0  0  0999 V2000
   -1.0861    2.7917    3.4525 H   0  0  0  1  0  0  0  0  0  0  0  0
    0.2208    1.3218    2.6214 C   0  0  0  1  0  0  0  0  0  0  0  0
    0.4732    3.7600    2.4662 N   0  0  0  1  0  0  0  0  0  0  0  0
   -0.4897    2.6739    2.5719 C   0  0  0  1  0  0  0  0  0  0  0  0
    1.0753    1.0271    1.7868 O   0  0  0  1  0  0  0  0  0  0  0  0
   -0.1171    0.4635    3.6060 N   0  0  0  1  0  0  0  0  0  0  0  0
    1.1023    3.7628    1.7148 H   0  0  0  1  0  0  0  0  0  0  0  0
    0.5299    4.7631    3.3666 C   0  0  0  1  0  0  0  0  0  0  0  0
    0.5345   -0.8345    3.6993 C   0  0  0  1  0  0  0  0  0  0  0  0
    1.5571    5.8574    3.1509 C   0  0  0  1  0  0  0  0  0  0  0  0
   -0.2270    4.7914    4.3334 O   0  0  0  1  0  0  0  0  0  0  0  0
   -0.8027    0.7145    4.2597 H   0  0  0  1  0  0  0  0  0  0  0  0
    1.4665   -0.8048    3.1746 H   0  0  0  1  0  0  0  0  0  0  0  0
   -0.0957   -1.5818    3.2643 H   0  0  0  1  0  0  0  0  0  0  0  0
    0.7118   -1.0711    4.7276 H   0  0  0  1  0  0  0  0  0  0  0  0
    1.0796    6.7175    2.7301 H   0  0  0  1  0  0  0  0  0  0  0  0
    2.3154    5.5076    2.4820 H   0  0  0  1  0  0  0  0  0  0  0  0
    2.0011    6.1193    4.0886 H   0  0  0  1  0  0  0  0  0  0  0  0
   -4.1391    3.2985    1.5955 F   0  0  0  1  0  0  0  0  0  0  0  0
   -3.3302    4.3097    1.2252 C   0  0  0  1  0  0  0  0  0  0  0  0
   -1.9734    4.0909    1.0783 C   0  0  0  1  0  0  0  0  0  0  0  0
   -1.1417    5.1304    0.6920 C   0  0  0  1  0  0  0  0  0  0  0  0
   -1.6684    6.3868    0.4589 C   0  0  0  1  0  0  0  0  0  0  0  0
   -3.0292    6.6060    0.6062 C   0  0  0  1  0  0  0  0  0  0  0  0
   -3.8585    5.5697    0.9914 C   0  0  0  1  0  0  0  0  0  0  0  0
   -1.3970    2.7192    1.3387 C   0  0  0  1  0  0  0  0  0  0  0  0
   -0.1214    4.9649    0.5776 H   0  0  0  1  0  0  0  0  0  0  0  0
   -1.0438    7.1677    0.1729 H   0  0  0  1  0  0  0  0  0  0  0  0
   -3.4261    7.5504    0.4269 H   0  0  0  1  0  0  0  0  0  0  0  0
   -4.8789    5.7352    1.1058 H   0  0  0  1  0  0  0  0  0  0  0  0
   -2.2045    2.0325    1.4846 H   0  0  0  1  0  0  0  0  0  0  0  0
   -0.8254    2.4222    0.4843 H   0  0  0  1  0  0  0  0  0  0  0  0
  1  4  1  0  0  0  0
  2  4  1  0  0  0  0
  2  5  2  0  0  0  0
  2  6  1  0  0  0  0
  3  4  1  0  0  0  0
  3  7  1  0  0  0  0
  3  8  1  0  0  0  0
  4 26  1  0  0  0  0
  6  9  1  0  0  0  0
  6 12  1  0  0  0  0
  8 10  1  0  0  0  0
  8 11  2  0  0  0  0
  9 13  1  0  0  0  0
  9 14  1  0  0  0  0
  9 15  1  0  0  0  0
 10 16  1  0  0  0  0
 10 17  1  0  0  0  0
 10 18  1  0  0  0  0
 19 20  1  0  0  0  0
 20 21  4  0  0  0  0
 20 25  4  0  0  0  0
 21 22  4  0  0  0  0
 21 26  1  0  0  0  0
 22 23  4  0  0  0  0
 22 27  1  0  0  0  0
 23 24  4  0  0  0  0
 23 28  1  0  0  0  0
 24 25  4  0  0  0  0
 24 29  1  0  0  0  0
 25 30  1  0  0  0  0
 26 31  1  0  0  0  0
 26 32  1  0  0  0  0
M  END
> <BCLConfClusterSize>
1

> <ConfClashScore>
0 

> <ConfOneFourInteractionScore>
-0.972289 

> <ConfScore>
0.0305921 

> <ConfScorePBest>
0.00421678 

> <ConfTolerance>
0.593558 

> <RosettaParamsInstructions>
M  ROOT 3
M  POLY_N_BB 3
M  POLY_CA_BB 4
M  POLY_C_BB 2
M  POLY_O_BB 5
M  POLY_IGNORE 9 10 11 12 13 14 15 16 17 18 
M  POLY_UPPER 6
M  POLY_LOWER 8
M  POLY_CHG 0
M  POLY_PROPERTIES ALPHA_AA L_AA PROTEIN AROMATIC POLYMER 
M  END

$$$$



 32 32  0  0  0  0  0  0  0  0999 V2000
    0.5552    3.2795    1.9485 H   0  0  0  1  0  0  0  0  0  0  0  0
   -0.6627    3.2503    3.6755 C   0  0  0  1  0  0  0  0  0  0  0  0
    0.2474    1.3125    2.5063 N   0  0  0  1  0  0  0  0  0  0  0  0
   -0.2376    2.6739    2.3353 C   0  0  0  1  0  0  0  0  0  0  0  0
   -1.6555    2.8339    4.2709 O   0  0  0  1  0  0  0  0  0  0  0  0
    0.1357    4.2259    4.1180 N   0  0  0  1  0  0  0  0  0  0  0  0
   -0.3930    0.6079    2.7384 H   0  0  0  1  0  0  0  0  0  0  0  0
    1.5480    0.9866    2.3566 C   0  0  0  1  0  0  0  0  0  0  0  0
   -0.1626    4.9893    5.3205 C   0  0  0  1  0  0  0  0  0  0  0  0
    1.9591   -0.4479    2.6259 C   0  0  0  1  0  0  0  0  0  0  0  0
    2.3781    1.8267    2.0117 O   0  0  0  1  0  0  0  0  0  0  0  0
    0.9507    4.4347    3.6153 H   0  0  0  1  0  0  0  0  0  0  0  0
    0.1380    6.0067    5.1815 H   0  0  0  1  0  0  0  0  0  0  0  0
    0.3690    4.5707    6.1495 H   0  0  0  1  0  0  0  0  0  0  0  0
   -1.2141    4.9517    5.5149 H   0  0  0  1  0  0  0  0  0  0  0  0
    1.2408   -0.9103    3.2702 H   0  0  0  1  0  0  0  0  0  0  0  0
    2.9202   -0.4610    3.0960 H   0  0  0  1  0  0  0  0  0  0  0  0
    2.0063   -0.9847    1.7014 H   0  0  0  1  0  0  0  0  0  0  0  0
   -4.1392    3.2983    1.5955 F   0  0  0  1  0  0  0  0  0  0  0  0
   -3.3303    4.3095    1.2252 C   0  0  0  1  0  0  0  0  0  0  0  0
   -1.9735    4.0910    1.0783 C   0  0  0  1  0  0  0  0  0  0  0  0
   -1.1417    5.1304    0.6920 C   0  0  0  1  0  0  0  0  0  0  0  0
   -1.6684    6.3867    0.4589 C   0  0  0  1  0  0  0  0  0  0  0  0
   -3.0292    6.6061    0.6062 C   0  0  0  1  0  0  0  0  0  0  0  0
   -3.8585    5.5697    0.9914 C   0  0  0  1  0  0  0  0  0  0  0  0
   -1.3970    2.7194    1.3387 C   0  0  0  1  0  0  0  0  0  0  0  0
   -0.1213    4.9649    0.5776 H   0  0  0  1  0  0  0  0  0  0  0  0
   -1.0438    7.1675    0.1730 H   0  0  0  1  0  0  0  0  0  0  0  0
   -3.4261    7.5506    0.4269 H   0  0  0  1  0  0  0  0  0  0  0  0
   -4.8788    5.7352    1.1058 H   0  0  0  1  0  0  0  0  0  0  0  0
   -2.1817    2.0978    1.7166 H   0  0  0  1  0  0  0  0  0  0  0  0
   -1.0471    2.3261    0.4071 H   0  0  0  1  0  0  0  0  0  0  0  0
  1  4  1  0  0  0  0
  2  4  1  0  0  0  0
  2  5  2  0  0  0  0
  2  6  1  0  0  0  0
  3  4  1  0  0  0  0
  3  7  1  0  0  0  0
  3  8  1  0  0  0  0
  4 26  1  0  0  0  0
  6  9  1  0  0  0  0
  6 12  1  0  0  0  0
  8 10  1  0  0  0  0
  8 11  2  0  0  0  0
  9 13  1  0  0  0  0
  9 14  1  0  0  0  0
  9 15  1  0  0  0  0
 10 16  1  0  0  0  0
 10 17  1  0  0  0  0
 10 18  1  0  0  0  0
 19 20  1  0  0  0  0
 20 21  4  0  0  0  0
 20 25  4  0  0  0  0
 21 22  4  0  0  0  0
 21 26  1  0  0  0  0
 22 23  4  0  0  0  0
 22 27  1  0  0  0  0
 23 24  4  0  0  0  0
 23 28  1  0  0  0  0
 24 25  4  0  0  0  0
 24 29  1  0  0  0  0
 25 30  1  0  0  0  0
 26 31  1  0  0  0  0
 26 32  1  0  0  0  0
M  END
> <BCLConfClusterSize>
1

> <ConfClashScore>
0 

> <ConfOneFourInteractionScore>
-0.971454 

> <ConfScore>
0.0309131 

> <ConfScorePBest>
0.0041883 

> <ConfTolerance>
0.426406 

> <RosettaParamsInstructions>
M  ROOT 3
M  POLY_N_BB 3
M  POLY_CA_BB 4
M  POLY_C_BB 2
M  POLY_O_BB 5
M  POLY_IGNORE 9 10 11 12 13 14 15 16 17 18 
M  POLY_UPPER 6
M  POLY_LOWER 8
M  POLY_CHG 0
M  POLY_PROPERTIES ALPHA_AA L_AA PROTEIN AROMATIC POLYMER 
M  END

$$$$



 32 32  0  0  0  0  0  0  0  0999 V2000
   -0.9001    2.2977   -0.6704 H   0  0  0  1  0  0  0  0  0  0  0  0
   -0.7797    0.4829    0.3804 C   0  0  0  1  0  0  0  0  0  0  0  0
   -2.8291    1.6657   -0.3379 N   0  0  0  1  0  0  0  0  0  0  0  0
   -1.4520    1.8146    0.1087 C   0  0  0  1  0  0  0  0  0  0  0  0
    0.1559    0.3931    1.1581 O   0  0  0  1  0  0  0  0  0  0  0  0
   -1.2782   -0.5648   -0.2821 N   0  0  0  1  0  0  0  0  0  0  0  0
   -3.0813    2.0153   -1.2181 H   0  0  0  1  0  0  0  0  0  0  0  0
   -3.7615    1.0690    0.4101 C   0  0  0  1  0  0  0  0  0  0  0  0
   -0.7224   -1.9095   -0.2538 C   0  0  0  1  0  0  0  0  0  0  0  0
   -5.1501    1.0045   -0.1955 C   0  0  0  1  0  0  0  0  0  0  0  0
   -3.5271    0.5962    1.5215 O   0  0  0  1  0  0  0  0  0  0  0  0
   -2.0783   -0.4166   -0.8282 H   0  0  0  1  0  0  0  0  0  0  0  0
    0.3288   -1.8575   -0.0614 H   0  0  0  1  0  0  0  0  0  0  0  0
   -0.8888   -2.3838   -1.1984 H   0  0  0  1  0  0  0  0  0  0  0  0
   -1.1987   -2.4758    0.5191 H   0  0  0  1  0  0  0  0  0  0  0  0
   -5.4301    1.9742   -0.5509 H   0  0  0  1  0  0  0  0  0  0  0  0
   -5.8486    0.6820    0.5481 H   0  0  0  1  0  0  0  0  0  0  0  0
   -5.1514    0.3119   -1.0111 H   0  0  0  1  0  0  0  0  0  0  0  0
   -4.1398    3.3019    1.6037 F   0  0  0  1  0  0  0  0  0  0  0  0
   -3.3319    4.3114    1.2268 C   0  0  0  1  0  0  0  0  0  0  0  0
   -1.9715    4.0914    1.0765 C   0  0  0  1  0  0  0  0  0  0  0  0
   -1.1416    5.1287    0.6948 C   0  0  0  1  0  0  0  0  0  0  0  0
   -1.6705    6.3878    0.4572 C   0  0  0  1  0  0  0  0  0  0  0  0
   -3.0268    6.6073    0.6071 C   0  0  0  1  0  0  0  0  0  0  0  0
   -3.8590    5.5669    0.9899 C   0  0  0  1  0  0  0  0  0  0  0  0
   -1.3961    2.7180    1.3297 C   0  0  0  1  0  0  0  0  0  0  0  0
   -0.1204    4.9646    0.5860 H   0  0  0  1  0  0  0  0  0  0  0  0
   -1.0467    7.1673    0.1662 H   0  0  0  1  0  0  0  0  0  0  0  0
   -3.4230    7.5529    0.4327 H   0  0  0  1  0  0  0  0  0  0  0  0
   -4.8802    5.7311    1.0987 H   0  0  0  1  0  0  0  0  0  0  0  0
   -0.3739    2.8265    1.6266 H   0  0  0  1  0  0  0  0  0  0  0  0
   -1.9506    2.2569    2.1202 H   0  0  0  1  0  0  0  0  0  0  0  0
  1  4  1  0  0  0  0
  2  4  1  0  0  0  0
  2  5  2  0  0  0  0
  2  6  1  0  0  0  0
  3  4  1  0  0  0  0
  3  7  1  0  0  0  0
  3  8  1  0  0  0  0
  4 26  1  0  0  0  0
  6  9  1  0  0  0  0
  6 12  1  0  0  0  0
  8 10  1  0  0  0  0
  8 11  2  0  0  0  0
  9 13  1  0  0  0  0
  9 14  1  0  0  0  0
  9 15  1  0  0  0  0
 10 16  1  0  0  0  0
 10 17  1  0  0  0  0
 10 18  1  0  0  0  0
 19 20  1  0  0  0  0
 20 21  4  0  0  0  0
 20 25  4  0  0  0  0
 21 22  4  0  0  0  0
 21 26  1  0  0  0  0
 22 23  4  0  0  0  0
 22 27  1  0  0  0  0
 23 24  4  0  0  0  0
 23 28  1  0  0  0  0
 24 25  4  0  0  0  0
 24 29  1  0  0  0  0
 25 30  1  0  0  0  0
 26 31  1  0  0  0  0
 26 32  1  0  0  0  0
M  END
> <BCLConfClusterSize>
1

> <ConfClashScore>
0 

> <ConfOneFourInteractionScore>
-0.956972 

> <ConfScore>
0.0313809 

> <ConfScorePBest>
0.00415982 

> <ConfTolerance>
0.260951 

> <RosettaParamsInstructions>
M  ROOT 3
M  POLY_N_BB 3
M  POLY_CA_BB 4
M  POLY_C_BB 2
M  POLY_O_BB 5
M  POLY_IGNORE 9 10 11 12 13 14 15 16 17 18 
M  POLY_UPPER 6
M  POLY_LOWER 8
M  POLY_CHG 0
M  POLY_PROPERTIES ALPHA_AA L_AA PROTEIN AROMATIC POLYMER 
M  END

$$$$



 32 32  0  0  0  0  0  0  0  0999 V2000
   -1.5355    2.7461    3.4395 H   0  0  0  1  0  0  0  0  0  0  0  0
   -0.0739    1.3204    2.9457 C   0  0  0  1  0  0  0  0  0  0  0  0
    0.1554    3.7820    2.8927 N   0  0  0  1  0  0  0  0  0  0  0  0
   -0.7514    2.6575    2.7168 C   0  0  0  1  0  0  0  0  0  0  0  0
   -0.4544    0.3118    2.3745 O   0  0  0  1  0  0  0  0  0  0  0  0
    0.9494    1.3283    3.8014 N   0  0  0  1  0  0  0  0  0  0  0  0
   -0.0287    4.4557    3.5802 H   0  0  0  1  0  0  0  0  0  0  0  0
    1.2430    3.8984    2.1156 C   0  0  0  1  0  0  0  0  0  0  0  0
    1.5914    0.0796    4.1842 C   0  0  0  1  0  0  0  0  0  0  0  0
    1.9479    5.2511    2.1873 C   0  0  0  1  0  0  0  0  0  0  0  0
    1.6234    3.0271    1.3381 O   0  0  0  1  0  0  0  0  0  0  0  0
    1.2695    2.1767    4.1730 H   0  0  0  1  0  0  0  0  0  0  0  0
    0.8718   -0.7121    4.1661 H   0  0  0  1  0  0  0  0  0  0  0  0
    1.9933    0.1735    5.1714 H   0  0  0  1  0  0  0  0  0  0  0  0
    2.3810   -0.1406    3.4965 H   0  0  0  1  0  0  0  0  0  0  0  0
    1.2910    6.0156    1.8282 H   0  0  0  1  0  0  0  0  0  0  0  0
    2.8299    5.2259    1.5821 H   0  0  0  1  0  0  0  0  0  0  0  0
    2.2166    5.4596    3.2018 H   0  0  0  1  0  0  0  0  0  0  0  0
   -4.1390    3.2984    1.5955 F   0  0  0  1  0  0  0  0  0  0  0  0
   -3.3302    4.3097    1.2252 C   0  0  0  1  0  0  0  0  0  0  0  0
   -1.9734    4.0909    1.0783 C   0  0  0  1  0  0  0  0  0  0  0  0
   -1.1418    5.1304    0.6920 C   0  0  0  1  0  0  0  0  0  0  0  0
   -1.6684    6.3868    0.4589 C   0  0  0  1  0  0  0  0  0  0  0  0
   -3.0292    6.6061    0.6062 C   0  0  0  1  0  0  0  0  0  0  0  0
   -3.8585    5.5697    0.9914 C   0  0  0  1  0  0  0  0  0  0  0  0
   -1.3970    2.7192    1.3387 C   0  0  0  1  0  0  0  0  0  0  0  0
   -0.1214    4.9648    0.5776 H   0  0  0  1  0  0  0  0  0  0  0  0
   -1.0437    7.1676    0.1729 H   0  0  0  1  0  0  0  0  0  0  0  0
   -3.4261    7.5505    0.4269 H   0  0  0  1  0  0  0  0  0  0  0  0
   -4.8789    5.7352    1.1058 H   0  0  0  1  0  0  0  0  0  0  0  0
   -2.1813    1.9933    1.2859 H   0  0  0  1  0  0  0  0  0  0  0  0
   -0.6586    2.5021    0.5954 H   0  0  0  1  0  0  0  0  0  0  0  0
  1  4  1  0  0  0  0
  2  4  1  0  0  0  0
  2  5  2  0  0  0  0
  2  6  1  0  0  0  0
  3  4  1  0  0  0  0
  3  7  1  0  0  0  0
  3  8  1  0  0  0  0
  4 26  1  0  0  0  0
  6  9  1  0  0  0  0
  6 12  1  0  0  0  0
  8 10  1  0  0  0  0
  8 11  2  0  0  0  0
  9 13  1  0  0  0  0
  9 14  1  0  0  0  0
  9 15  1  0  0  0  0
 10 16  1  0  0  0  0
 10 17  1  0  0  0  0
 10 18  1  0  0  0  0
 19 20  1  0  0  0  0
 20 21  4  0  0  0  0
 20 25  4  0  0  0  0
 21 22  4  0  0  0  0
 21 26  1  0  0  0  0
 22 23  4  0  0  0  0
 22 27  1  0  0  0  0
 23 24  4  0  0  0  0
 23 28  1  0  0  0  0
 24 25  4  0  0  0  0
 24 29  1  0  0  0  0
 25 30  1  0  0  0  0
 26 31  1  0  0  0  0
 26 32  1  0  0  0  0
M  END
> <BCLConfClusterSize>
1

> <ConfClashScore>
0 

> <ConfOneFourInteractionScore>
-0.938304 

> <ConfScore>
0.0313809 

> <ConfScorePBest>
0.00413134 

> <ConfTolerance>
0.305831 

> <RosettaParamsInstructions>
M  ROOT 3
M  POLY_N_BB 3
M  POLY_CA_BB 4
M  POLY_C_BB 2
M  POLY_O_BB 5
M  POLY_IGNORE 9 10 11 12 13 14 15 16 17 18 
M  POLY_UPPER 6
M  POLY_LOWER 8
M  POLY_CHG 0
M  POLY_PROPERTIES ALPHA_AA L_AA PROTEIN AROMATIC POLYMER 
M  END

$$$$



 32 32  0  0  0  0  0  0  0  0999 V2000
    0.5726    3.3813    1.6510 H   0  0  0  1  0  0  0  0  0  0  0  0
    0.6612    1.2818    1.4867 C   0  0  0  1  0  0  0  0  0  0  0  0
    0.4949    2.8597   -0.3318 N   0  0  0  1  0  0  0  0  0  0  0  0
    0.0982    2.6359    1.0475 C   0  0  0  1  0  0  0  0  0  0  0  0
    0.9303    0.3763    0.7202 O   0  0  0  1  0  0  0  0  0  0  0  0
    0.8533    1.1272    2.7998 N   0  0  0  1  0  0  0  0  0  0  0  0
   -0.2299    3.0197   -0.9717 H   0  0  0  1  0  0  0  0  0  0  0  0
    1.7372    2.8723   -0.8279 C   0  0  0  1  0  0  0  0  0  0  0  0
    1.2492   -0.1460    3.3831 C   0  0  0  1  0  0  0  0  0  0  0  0
    1.8465    3.0864   -2.3250 C   0  0  0  1  0  0  0  0  0  0  0  0
    2.7372    2.7218   -0.1309 O   0  0  0  1  0  0  0  0  0  0  0  0
    0.7232    1.8981    3.3908 H   0  0  0  1  0  0  0  0  0  0  0  0
    1.6312   -0.7868    2.6161 H   0  0  0  1  0  0  0  0  0  0  0  0
    0.3998   -0.6070    3.8424 H   0  0  0  1  0  0  0  0  0  0  0  0
    2.0075    0.0198    4.1195 H   0  0  0  1  0  0  0  0  0  0  0  0
    0.9239    3.4795   -2.6980 H   0  0  0  1  0  0  0  0  0  0  0  0
    2.0558    2.1529   -2.8042 H   0  0  0  1  0  0  0  0  0  0  0  0
    2.6371    3.7779   -2.5294 H   0  0  0  1  0  0  0  0  0  0  0  0
   -4.1398    3.3019    1.6037 F   0  0  0  1  0  0  0  0  0  0  0  0
   -3.3319    4.3114    1.2268 C   0  0  0  1  0  0  0  0  0  0  0  0
   -1.9716    4.0914    1.0765 C   0  0  0  1  0  0  0  0  0  0  0  0
   -1.1416    5.1287    0.6948 C   0  0  0  1  0  0  0  0  0  0  0  0
   -1.6705    6.3878    0.4572 C   0  0  0  1  0  0  0  0  0  0  0  0
   -3.0268    6.6073    0.6071 C   0  0  0  1  0  0  0  0  0  0  0  0
   -3.8590    5.5669    0.9899 C   0  0  0  1  0  0  0  0  0  0  0  0
   -1.3962    2.7180    1.3297 C   0  0  0  1  0  0  0  0  0  0  0  0
   -0.1204    4.9645    0.5860 H   0  0  0  1  0  0  0  0  0  0  0  0
   -1.0467    7.1674    0.1662 H   0  0  0  1  0  0  0  0  0  0  0  0
   -3.4230    7.5529    0.4327 H   0  0  0  1  0  0  0  0  0  0  0  0
   -4.8802    5.7310    1.0987 H   0  0  0  1  0  0  0  0  0  0  0  0
   -1.5637    2.4624    2.3552 H   0  0  0  1  0  0  0  0  0  0  0  0
   -1.9009    2.0158    0.6996 H   0  0  0  1  0  0  0  0  0  0  0  0
  1  4  1  0  0  0  0
  2  4  1  0  0  0  0
  2  5  2  0  0  0  0
  2  6  1  0  0  0  0
  3  4  1  0  0  0  0
  3  7  1  0  0  0  0
  3  8  1  0  0  0  0
  4 26  1  0  0  0  0
  6  9  1  0  0  0  0
  6 12  1  0  0  0  0
  8 10  1  0  0  0  0
  8 11  2  0  0  0  0
  9 13  1  0  0  0  0
  9 14  1  0  0  0  0
  9 15  1  0  0  0  0
 10 16  1  0  0  0  0
 10 17  1  0  0  0  0
 10 18  1  0  0  0  0
 19 20  1  0  0  0  0
 20 21  4  0  0  0  0
 20 25  4  0  0  0  0
 21 22  4  0  0  0  0
 21 26  1  0  0  0  0
 22 23  4  0  0  0  0
 22 27  1  0  0  0  0
 23 24  4  0  0  0  0
 23 28  1  0  0  0  0
 24 25  4  0  0  0  0
 24 29  1  0  0  0  0
 25 30  1  0  0  0  0
 26 31  1  0  0  0  0
 26 32  1  0  0  0  0
M  END
> <BCLConfClusterSize>
1

> <ConfClashScore>
0 

> <ConfOneFourInteractionScore>
-0.976378 

> <ConfScore>
0.0337722 

> <ConfScorePBest>
0.00410286 

> <ConfTolerance>
0.672398 

> <RosettaParamsInstructions>
M  ROOT 3
M  POLY_N_BB 3
M  POLY_CA_BB 4
M  POLY_C_BB 2
M  POLY_O_BB 5
M  POLY_IGNORE 9 10 11 12 13 14 15 16 17 18 
M  POLY_UPPER 6
M  POLY_LOWER 8
M  POLY_CHG 0
M  POLY_PROPERTIES ALPHA_AA L_AA PROTEIN AROMATIC POLYMER 
M  END

$$$$



 32 32  0  0  0  0  0  0  0  0999 V2000
   -0.4753    3.3220    3.1233 H   0  0  0  1  0  0  0  0  0  0  0  0
   -2.2948    2.4789    3.6848 C   0  0  0  1  0  0  0  0  0  0  0  0
   -0.2226    1.3011    2.9787 N   0  0  0  1  0  0  0  0  0  0  0  0
   -1.0591    2.4805    2.8136 C   0  0  0  1  0  0  0  0  0  0  0  0
   -2.8758    3.5251    3.9706 O   0  0  0  1  0  0  0  0  0  0  0  0
   -2.7016    1.2805    4.1130 N   0  0  0  1  0  0  0  0  0  0  0  0
   -0.3014    0.5708    2.3300 H   0  0  0  1  0  0  0  0  0  0  0  0
    0.6491    1.1795    3.9839 C   0  0  0  1  0  0  0  0  0  0  0  0
   -3.6933    1.1271    5.1669 C   0  0  0  1  0  0  0  0  0  0  0  0
    1.3314   -0.1693    4.1045 C   0  0  0  1  0  0  0  0  0  0  0  0
    0.8953    2.0922    4.7713 O   0  0  0  1  0  0  0  0  0  0  0  0
   -2.3188    0.4769    3.7031 H   0  0  0  1  0  0  0  0  0  0  0  0
   -4.4055    1.9233    5.1059 H   0  0  0  1  0  0  0  0  0  0  0  0
   -3.2079    1.1554    6.1200 H   0  0  0  1  0  0  0  0  0  0  0  0
   -4.1958    0.1897    5.0497 H   0  0  0  1  0  0  0  0  0  0  0  0
    1.7148   -0.2882    5.0963 H   0  0  0  1  0  0  0  0  0  0  0  0
    2.1366   -0.2254    3.4020 H   0  0  0  1  0  0  0  0  0  0  0  0
    0.6244   -0.9459    3.9001 H   0  0  0  1  0  0  0  0  0  0  0  0
   -4.1390    3.2984    1.5955 F   0  0  0  1  0  0  0  0  0  0  0  0
   -3.3302    4.3097    1.2252 C   0  0  0  1  0  0  0  0  0  0  0  0
   -1.9734    4.0909    1.0783 C   0  0  0  1  0  0  0  0  0  0  0  0
   -1.1418    5.1304    0.6920 C   0  0  0  1  0  0  0  0  0  0  0  0
   -1.6684    6.3868    0.4589 C   0  0  0  1  0  0  0  0  0  0  0  0
   -3.0292    6.6061    0.6062 C   0  0  0  1  0  0  0  0  0  0  0  0
   -3.8585    5.5697    0.9914 C   0  0  0  1  0  0  0  0  0  0  0  0
   -1.3970    2.7192    1.3387 C   0  0  0  1  0  0  0  0  0  0  0  0
   -0.1214    4.9648    0.5776 H   0  0  0  1  0  0  0  0  0  0  0  0
   -1.0437    7.1676    0.1729 H   0  0  0  1  0  0  0  0  0  0  0  0
   -3.4261    7.5505    0.4269 H   0  0  0  1  0  0  0  0  0  0  0  0
   -4.8789    5.7352    1.1058 H   0  0  0  1  0  0  0  0  0  0  0  0
   -2.1117    1.9852    1.0299 H   0  0  0  1  0  0  0  0  0  0  0  0
   -0.5020    2.6109    0.7624 H   0  0  0  1  0  0  0  0  0  0  0  0
  1  4  1  0  0  0  0
  2  4  1  0  0  0  0
  2  5  2  0  0  0  0
  2  6  1  0  0  0  0
  3  4  1  0  0  0  0
  3  7  1  0  0  0  0
  3  8  1  0  0  0  0
  4 26  1  0  0  0  0
  6  9  1  0  0  0  0
  6 12  1  0  0  0  0
  8 10  1  0  0  0  0
  8 11  2  0  0  0  0
  9 13  1  0  0  0  0
  9 14  1  0  0  0  0
  9 15  1  0  0  0  0
 10 16  1  0  0  0  0
 10 17  1  0  0  0  0
 10 18  1  0  0  0  0
 19 20  1  0  0  0  0
 20 21  4  0  0  0  0
 20 25  4  0  0  0  0
 21 22  4  0  0  0  0
 21 26  1  0  0  0  0
 22 23  4  0  0  0  0
 22 27  1  0  0  0  0
 23 24  4  0  0  0  0
 23 28  1  0  0  0  0
 24 25  4  0  0  0  0
 24 29  1  0  0  0  0
 25 30  1  0  0  0  0
 26 31  1  0  0  0  0
 26 32  1  0  0  0  0
M  END
> <BCLConfClusterSize>
1

> <ConfClashScore>
0 

> <ConfOneFourInteractionScore>
-0.960318 

> <ConfScore>
0.0442858 

> <ConfScorePBest>
0.00407438 

> <ConfTolerance>
0.435227 

> <RosettaParamsInstructions>
M  ROOT 3
M  POLY_N_BB 3
M  POLY_CA_BB 4
M  POLY_C_BB 2
M  POLY_O_BB 5
M  POLY_IGNORE 9 10 11 12 13 14 15 16 17 18 
M  POLY_UPPER 6
M  POLY_LOWER 8
M  POLY_CHG 0
M  POLY_PROPERTIES ALPHA_AA L_AA PROTEIN AROMATIC POLYMER 
M  END

$$$$



 32 32  0  0  0  0  0  0  0  0999 V2000
   -3.0499    1.7386    0.5407 H   0  0  0  1  0  0  0  0  0  0  0  0
   -1.7291    1.8346   -1.0598 C   0  0  0  1  0  0  0  0  0  0  0  0
   -1.6529    0.2827    0.8795 N   0  0  0  1  0  0  0  0  0  0  0  0
   -1.9902    1.6462    0.4253 C   0  0  0  1  0  0  0  0  0  0  0  0
   -0.5822    1.8293   -1.5044 O   0  0  0  1  0  0  0  0  0  0  0  0
   -2.7808    2.0058   -1.8658 N   0  0  0  1  0  0  0  0  0  0  0  0
   -0.7103    0.0181    0.9227 H   0  0  0  1  0  0  0  0  0  0  0  0
   -2.5881   -0.6032    1.2339 C   0  0  0  1  0  0  0  0  0  0  0  0
   -2.6462    2.0897   -3.3124 C   0  0  0  1  0  0  0  0  0  0  0  0
   -2.0864   -1.9974    1.5561 C   0  0  0  1  0  0  0  0  0  0  0  0
   -3.7845   -0.3241    1.3002 O   0  0  0  1  0  0  0  0  0  0  0  0
   -3.6740    2.0774   -1.4690 H   0  0  0  1  0  0  0  0  0  0  0  0
   -2.1058    2.9765   -3.5700 H   0  0  0  1  0  0  0  0  0  0  0  0
   -3.6178    2.1218   -3.7595 H   0  0  0  1  0  0  0  0  0  0  0  0
   -2.1160    1.2324   -3.6713 H   0  0  0  1  0  0  0  0  0  0  0  0
   -2.0793   -2.5893    0.6648 H   0  0  0  1  0  0  0  0  0  0  0  0
   -2.7318   -2.4501    2.2795 H   0  0  0  1  0  0  0  0  0  0  0  0
   -1.0940   -1.9365    1.9514 H   0  0  0  1  0  0  0  0  0  0  0  0
   -4.1397    3.3019    1.6037 F   0  0  0  1  0  0  0  0  0  0  0  0
   -3.3319    4.3114    1.2268 C   0  0  0  1  0  0  0  0  0  0  0  0
   -1.9715    4.0915    1.0765 C   0  0  0  1  0  0  0  0  0  0  0  0
   -1.1416    5.1287    0.6948 C   0  0  0  1  0  0  0  0  0  0  0  0
   -1.6705    6.3877    0.4572 C   0  0  0  1  0  0  0  0  0  0  0  0
   -3.0268    6.6073    0.6071 C   0  0  0  1  0  0  0  0  0  0  0  0
   -3.8591    5.5669    0.9899 C   0  0  0  1  0  0  0  0  0  0  0  0
   -1.3961    2.7181    1.3297 C   0  0  0  1  0  0  0  0  0  0  0  0
   -0.1204    4.9645    0.5860 H   0  0  0  1  0  0  0  0  0  0  0  0
   -1.0466    7.1673    0.1662 H   0  0  0  1  0  0  0  0  0  0  0  0
   -3.4230    7.5530    0.4327 H   0  0  0  1  0  0  0  0  0  0  0  0
   -4.8802    5.7310    1.0988 H   0  0  0  1  0  0  0  0  0  0  0  0
   -0.3396    2.7557    1.1647 H   0  0  0  1  0  0  0  0  0  0  0  0
   -1.5894    2.4503    2.3475 H   0  0  0  1  0  0  0  0  0  0  0  0
  1  4  1  0  0  0  0
  2  4  1  0  0  0  0
  2  5  2  0  0  0  0
  2  6  1  0  0  0  0
  3  4  1  0  0  0  0
  3  7  1  0  0  0  0
  3  8  1  0  0  0  0
  4 26  1  0  0  0  0
  6  9  1  0  0  0  0
  6 12  1  0  0  0  0
  8 10  1  0  0  0  0
  8 11  2  0  0  0  0
  9 13  1  0  0  0  0
  9 14  1  0  0  0  0
  9 15  1  0  0  0  0
 10 16  1  0  0  0  0
 10 17  1  0  0  0  0
 10 18  1  0  0  0  0
 19 20  1  0  0  0  0
 20 21  4  0  0  0  0
 20 25  4  0  0  0  0
 21 22  4  0  0  0  0
 21 26  1  0  0  0  0
 22 23  4  0  0  0  0
 22 27  1  0  0  0  0
 23 24  4  0  0  0  0
 23 28  1  0  0  0  0
 24 25  4  0  0  0  0
 24 29  1  0  0  0  0
 25 30  1  0  0  0  0
 26 31  1  0  0  0  0
 26 32  1  0  0  0  0
M  END
> <BCLConfClusterSize>
1

> <ConfClashScore>
0 

> <ConfOneFourInteractionScore>
-0.985807 

> <ConfScore>
0.0455212 

> <ConfScorePBest>
0.00404589 

> <ConfTolerance>
0.454587 

> <RosettaParamsInstructions>
M  ROOT 3
M  POLY_N_BB 3
M  POLY_CA_BB 4
M  POLY_C_BB 2
M  POLY_O_BB 5
M  POLY_IGNORE 9 10 11 12 13 14 15 16 17 18 
M  POLY_UPPER 6
M  POLY_LOWER 8
M  POLY_CHG 0
M  POLY_PROPERTIES ALPHA_AA L_AA PROTEIN AROMATIC POLYMER 
M  END

$$$$



 32 32  0  0  0  0  0  0  0  0999 V2000
   -0.9342    2.1893   -0.6707 H   0  0  0  1  0  0  0  0  0  0  0  0
   -0.7771    0.4505    0.5435 C   0  0  0  1  0  0  0  0  0  0  0  0
   -2.8483    1.5217   -0.2204 N   0  0  0  1  0  0  0  0  0  0  0  0
   -1.4618    1.7572    0.1539 C   0  0  0  1  0  0  0  0  0  0  0  0
   -1.2138   -0.2523    1.4540 O   0  0  0  1  0  0  0  0  0  0  0  0
    0.3108    0.1320   -0.1635 N   0  0  0  1  0  0  0  0  0  0  0  0
   -3.5605    2.0679    0.1732 H   0  0  0  1  0  0  0  0  0  0  0  0
   -3.1553    0.5531   -1.1080 C   0  0  0  1  0  0  0  0  0  0  0  0
    1.0342   -1.0979    0.1228 C   0  0  0  1  0  0  0  0  0  0  0  0
   -4.6206    0.2609   -1.3659 C   0  0  0  1  0  0  0  0  0  0  0  0
   -2.2756   -0.0750   -1.6912 O   0  0  0  1  0  0  0  0  0  0  0  0
    0.6224    0.7279   -0.8764 H   0  0  0  1  0  0  0  0  0  0  0  0
    0.9318   -1.3392    1.1602 H   0  0  0  1  0  0  0  0  0  0  0  0
    2.0697   -0.9652   -0.1117 H   0  0  0  1  0  0  0  0  0  0  0  0
    0.6329   -1.8935   -0.4694 H   0  0  0  1  0  0  0  0  0  0  0  0
   -5.2045    1.1252   -1.1272 H   0  0  0  1  0  0  0  0  0  0  0  0
   -4.9332   -0.5602   -0.7553 H   0  0  0  1  0  0  0  0  0  0  0  0
   -4.7581    0.0116   -2.3974 H   0  0  0  1  0  0  0  0  0  0  0  0
   -4.1397    3.3019    1.6037 F   0  0  0  1  0  0  0  0  0  0  0  0
   -3.3319    4.3114    1.2268 C   0  0  0  1  0  0  0  0  0  0  0  0
   -1.9715    4.0915    1.0765 C   0  0  0  1  0  0  0  0  0  0  0  0
   -1.1416    5.1287    0.6948 C   0  0  0  1  0  0  0  0  0  0  0  0
   -1.6705    6.3877    0.4572 C   0  0  0  1  0  0  0  0  0  0  0  0
   -3.0268    6.6073    0.6071 C   0  0  0  1  0  0  0  0  0  0  0  0
   -3.8591    5.5669    0.9899 C   0  0  0  1  0  0  0  0  0  0  0  0
   -1.3961    2.7181    1.3297 C   0  0  0  1  0  0  0  0  0  0  0  0
   -0.1204    4.9645    0.5860 H   0  0  0  1  0  0  0  0  0  0  0  0
   -1.0466    7.1673    0.1662 H   0  0  0  1  0  0  0  0  0  0  0  0
   -3.4230    7.5530    0.4327 H   0  0  0  1  0  0  0  0  0  0  0  0
   -4.8802    5.7310    1.0988 H   0  0  0  1  0  0  0  0  0  0  0  0
   -0.3683    2.8360    1.6026 H   0  0  0  1  0  0  0  0  0  0  0  0
   -1.9340    2.2800    2.1444 H   0  0  0  1  0  0  0  0  0  0  0  0
  1  4  1  0  0  0  0
  2  4  1  0  0  0  0
  2  5  2  0  0  0  0
  2  6  1  0  0  0  0
  3  4  1  0  0  0  0
  3  7  1  0  0  0  0
  3  8  1  0  0  0  0
  4 26  1  0  0  0  0
  6  9  1  0  0  0  0
  6 12  1  0  0  0  0
  8 10  1  0  0  0  0
  8 11  2  0  0  0  0
  9 13  1  0  0  0  0
  9 14  1  0  0  0  0
  9 15  1  0  0  0  0
 10 16  1  0  0  0  0
 10 17  1  0  0  0  0
 10 18  1  0  0  0  0
 19 20  1  0  0  0  0
 20 21  4  0  0  0  0
 20 25  4  0  0  0  0
 21 22  4  0  0  0  0
 21 26  1  0  0  0  0
 22 23  4  0  0  0  0
 22 27  1  0  0  0  0
 23 24  4  0  0  0  0
 23 28  1  0  0  0  0
 24 25  4  0  0  0  0
 24 29  1  0  0  0  0
 25 30  1  0  0  0  0
 26 31  1  0  0  0  0
 26 32  1  0  0  0  0
M  END
> <BCLConfClusterSize>
1

> <ConfClashScore>
0 

> <ConfOneFourInteractionScore>
-0.985807 

> <ConfScore>
0.0467638 

> <ConfScorePBest>
0.00401741 

> <ConfTolerance>
0.482036 

> <RosettaParamsInstructions>
M  ROOT 3
M  POLY_N_BB 3
M  POLY_CA_BB 4
M  POLY_C_BB 2
M  POLY_O_BB 5
M  POLY_IGNORE 9 10 11 12 13 14 15 16 17 18 
M  POLY_UPPER 6
M  POLY_LOWER 8
M  POLY_CHG 0
M  POLY_PROPERTIES ALPHA_AA L_AA PROTEIN AROMATIC POLYMER 
M  END

$$$$



 32 32  0  0  0  0  0  0  0  0999 V2000
   -0.9298    0.8822    0.4154 H   0  0  0  1  0  0  0  0  0  0  0  0
   -2.9953    1.1725    0.0986 C   0  0  0  1  0  0  0  0  0  0  0  0
   -1.1881    2.2849   -1.0710 N   0  0  0  1  0  0  0  0  0  0  0  0
   -1.5735    1.7120    0.2100 C   0  0  0  1  0  0  0  0  0  0  0  0
   -3.8009    1.6989   -0.6679 O   0  0  0  1  0  0  0  0  0  0  0  0
   -3.3367    0.1806    0.9260 N   0  0  0  1  0  0  0  0  0  0  0  0
   -0.8792    3.2145   -1.0996 H   0  0  0  1  0  0  0  0  0  0  0  0
   -1.2408    1.5877   -2.2095 C   0  0  0  1  0  0  0  0  0  0  0  0
   -4.6472   -0.4504    0.9742 C   0  0  0  1  0  0  0  0  0  0  0  0
   -0.8419    2.3394   -3.4592 C   0  0  0  1  0  0  0  0  0  0  0  0
   -1.5892    0.4087   -2.2575 O   0  0  0  1  0  0  0  0  0  0  0  0
   -2.6531   -0.1467    1.5473 H   0  0  0  1  0  0  0  0  0  0  0  0
   -5.0802   -0.4493   -0.0043 H   0  0  0  1  0  0  0  0  0  0  0  0
   -5.2799    0.0929    1.6446 H   0  0  0  1  0  0  0  0  0  0  0  0
   -4.5449   -1.4586    1.3176 H   0  0  0  1  0  0  0  0  0  0  0  0
   -0.0768    3.0484   -3.2205 H   0  0  0  1  0  0  0  0  0  0  0  0
   -1.6937    2.8532   -3.8532 H   0  0  0  1  0  0  0  0  0  0  0  0
   -0.4727    1.6486   -4.1881 H   0  0  0  1  0  0  0  0  0  0  0  0
   -4.1392    3.2984    1.5955 F   0  0  0  1  0  0  0  0  0  0  0  0
   -3.3303    4.3096    1.2252 C   0  0  0  1  0  0  0  0  0  0  0  0
   -1.9735    4.0909    1.0783 C   0  0  0  1  0  0  0  0  0  0  0  0
   -1.1416    5.1304    0.6920 C   0  0  0  1  0  0  0  0  0  0  0  0
   -1.6685    6.3867    0.4589 C   0  0  0  1  0  0  0  0  0  0  0  0
   -3.0292    6.6061    0.6062 C   0  0  0  1  0  0  0  0  0  0  0  0
   -3.8584    5.5697    0.9914 C   0  0  0  1  0  0  0  0  0  0  0  0
   -1.3970    2.7193    1.3387 C   0  0  0  1  0  0  0  0  0  0  0  0
   -0.1213    4.9649    0.5776 H   0  0  0  1  0  0  0  0  0  0  0  0
   -1.0439    7.1676    0.1730 H   0  0  0  1  0  0  0  0  0  0  0  0
   -3.4261    7.5505    0.4269 H   0  0  0  1  0  0  0  0  0  0  0  0
   -4.8787    5.7352    1.1058 H   0  0  0  1  0  0  0  0  0  0  0  0
   -0.3485    2.8310    1.5205 H   0  0  0  1  0  0  0  0  0  0  0  0
   -1.8708    2.3226    2.2123 H   0  0  0  1  0  0  0  0  0  0  0  0
  1  4  1  0  0  0  0
  2  4  1  0  0  0  0
  2  5  2  0  0  0  0
  2  6  1  0  0  0  0
  3  4  1  0  0  0  0
  3  7  1  0  0  0  0
  3  8  1  0  0  0  0
  4 26  1  0  0  0  0
  6  9  1  0  0  0  0
  6 12  1  0  0  0  0
  8 10  1  0  0  0  0
  8 11  2  0  0  0  0
  9 13  1  0  0  0  0
  9 14  1  0  0  0  0
  9 15  1  0  0  0  0
 10 16  1  0  0  0  0
 10 17  1  0  0  0  0
 10 18  1  0  0  0  0
 19 20  1  0  0  0  0
 20 21  4  0  0  0  0
 20 25  4  0  0  0  0
 21 22  4  0  0  0  0
 21 26  1  0  0  0  0
 22 23  4  0  0  0  0
 22 27  1  0  0  0  0
 23 24  4  0  0  0  0
 23 28  1  0  0  0  0
 24 25  4  0  0  0  0
 24 29  1  0  0  0  0
 25 30  1  0  0  0  0
 26 31  1  0  0  0  0
 26 32  1  0  0  0  0
M  END
> <BCLConfClusterSize>
1

> <ConfClashScore>
0 

> <ConfOneFourInteractionScore>
-0.977982 

> <ConfScore>
0.0474425 

> <ConfScorePBest>
0.00398893 

> <ConfTolerance>
0.401123 

> <RosettaParamsInstructions>
M  ROOT 3
M  POLY_N_BB 3
M  POLY_CA_BB 4
M  POLY_C_BB 2
M  POLY_O_BB 5
M  POLY_IGNORE 9 10 11 12 13 14 15 16 17 18 
M  POLY_UPPER 6
M  POLY_LOWER 8
M  POLY_CHG 0
M  POLY_PROPERTIES ALPHA_AA L_AA PROTEIN AROMATIC POLYMER 
M  END

$$$$



 32 32  0  0  0  0  0  0  0  0999 V2000
   -0.7069    2.2280   -0.5955 H   0  0  0  1  0  0  0  0  0  0  0  0
   -0.7817    0.4318    0.4963 C   0  0  0  1  0  0  0  0  0  0  0  0
   -2.6476    1.5598   -0.5316 N   0  0  0  1  0  0  0  0  0  0  0  0
   -1.3678    1.7887    0.1222 C   0  0  0  1  0  0  0  0  0  0  0  0
   -0.8135    0.0201    1.6552 O   0  0  0  1  0  0  0  0  0  0  0  0
   -0.2412   -0.2638   -0.5083 N   0  0  0  1  0  0  0  0  0  0  0  0
   -3.4742    1.5691   -0.0053 H   0  0  0  1  0  0  0  0  0  0  0  0
   -2.6980    1.3369   -1.8480 C   0  0  0  1  0  0  0  0  0  0  0  0
    0.2545   -1.6128   -0.2793 C   0  0  0  1  0  0  0  0  0  0  0  0
   -4.0818    1.1663   -2.4328 C   0  0  0  1  0  0  0  0  0  0  0  0
   -1.6935    1.2714   -2.5553 O   0  0  0  1  0  0  0  0  0  0  0  0
   -0.1785    0.1352   -1.4012 H   0  0  0  1  0  0  0  0  0  0  0  0
   -0.5497   -2.2380    0.0481 H   0  0  0  1  0  0  0  0  0  0  0  0
    1.0165   -1.5898    0.4715 H   0  0  0  1  0  0  0  0  0  0  0  0
    0.6612   -2.0023   -1.1891 H   0  0  0  1  0  0  0  0  0  0  0  0
   -4.6756    2.0259   -2.2018 H   0  0  0  1  0  0  0  0  0  0  0  0
   -4.5400    0.2940   -2.0155 H   0  0  0  1  0  0  0  0  0  0  0  0
   -4.0091    1.0582   -3.4948 H   0  0  0  1  0  0  0  0  0  0  0  0
   -4.1397    3.3020    1.6037 F   0  0  0  1  0  0  0  0  0  0  0  0
   -3.3318    4.3115    1.2268 C   0  0  0  1  0  0  0  0  0  0  0  0
   -1.9715    4.0913    1.0765 C   0  0  0  1  0  0  0  0  0  0  0  0
   -1.1417    5.1287    0.6949 C   0  0  0  1  0  0  0  0  0  0  0  0
   -1.6705    6.3878    0.4572 C   0  0  0  1  0  0  0  0  0  0  0  0
   -3.0268    6.6072    0.6071 C   0  0  0  1  0  0  0  0  0  0  0  0
   -3.8591    5.5669    0.9899 C   0  0  0  1  0  0  0  0  0  0  0  0
   -1.3961    2.7179    1.3298 C   0  0  0  1  0  0  0  0  0  0  0  0
   -0.1205    4.9646    0.5860 H   0  0  0  1  0  0  0  0  0  0  0  0
   -1.0466    7.1674    0.1662 H   0  0  0  1  0  0  0  0  0  0  0  0
   -3.4229    7.5528    0.4327 H   0  0  0  1  0  0  0  0  0  0  0  0
   -4.8803    5.7311    1.0987 H   0  0  0  1  0  0  0  0  0  0  0  0
   -0.3910    2.8398    1.6760 H   0  0  0  1  0  0  0  0  0  0  0  0
   -1.9825    2.2499    2.0927 H   0  0  0  1  0  0  0  0  0  0  0  0
  1  4  1  0  0  0  0
  2  4  1  0  0  0  0
  2  5  2  0  0  0  0
  2  6  1  0  0  0  0
  3  4  1  0  0  0  0
  3  7  1  0  0  0  0
  3  8  1  0  0  0  0
  4 26  1  0  0  0  0
  6  9  1  0  0  0  0
  6 12  1  0  0  0  0
  8 10  1  0  0  0  0
  8 11  2  0  0  0  0
  9 13  1  0  0  0  0
  9 14  1  0  0  0  0
  9 15  1  0  0  0  0
 10 16  1  0  0  0  0
 10 17  1  0  0  0  0
 10 18  1  0  0  0  0
 19 20  1  0  0  0  0
 20 21  4  0  0  0  0
 20 25  4  0  0  0  0
 21 22  4  0  0  0  0
 21 26  1  0  0  0  0
 22 23  4  0  0  0  0
 22 27  1  0  0  0  0
 23 24  4  0  0  0  0
 23 28  1  0  0  0  0
 24 25  4  0  0  0  0
 24 29  1  0  0  0  0
 25 30  1  0  0  0  0
 26 31  1  0  0  0  0
 26 32  1  0  0  0  0
M  END
> <BCLConfClusterSize>
1

> <ConfClashScore>
0 

> <ConfOneFourInteractionScore>
-0.979134 

> <ConfScore>
0.0509633 

> <ConfScorePBest>
0.00396045 

> <ConfTolerance>
0.417004 

> <RosettaParamsInstructions>
M  ROOT 3
M  POLY_N_BB 3
M  POLY_CA_BB 4
M  POLY_C_BB 2
M  POLY_O_BB 5
M  POLY_IGNORE 9 10 11 12 13 14 15 16 17 18 
M  POLY_UPPER 6
M  POLY_LOWER 8
M  POLY_CHG 0
M  POLY_PROPERTIES ALPHA_AA L_AA PROTEIN AROMATIC POLYMER 
M  END

$$$$



 32 32  0  0  0  0  0  0  0  0999 V2000
   -1.5072    1.8109   -0.5622 H   0  0  0  1  0  0  0  0  0  0  0  0
    0.2485    2.9798   -0.5382 C   0  0  0  1  0  0  0  0  0  0  0  0
   -0.1318    0.8158    0.6149 N   0  0  0  1  0  0  0  0  0  0  0  0
   -0.7388    2.0513    0.1425 C   0  0  0  1  0  0  0  0  0  0  0  0
    1.1805    3.4895    0.0569 O   0  0  0  1  0  0  0  0  0  0  0  0
    0.0947    3.2516   -1.8372 N   0  0  0  1  0  0  0  0  0  0  0  0
    0.5592    0.8632    1.3082 H   0  0  0  1  0  0  0  0  0  0  0  0
   -0.4869   -0.3909    0.1321 C   0  0  0  1  0  0  0  0  0  0  0  0
    0.9622    4.1814   -2.5449 C   0  0  0  1  0  0  0  0  0  0  0  0
    0.2189   -1.5497    0.8090 C   0  0  0  1  0  0  0  0  0  0  0  0
   -1.3027   -0.5714   -0.7710 O   0  0  0  1  0  0  0  0  0  0  0  0
   -0.6274    2.8095   -2.3307 H   0  0  0  1  0  0  0  0  0  0  0  0
    0.4077    4.6676   -3.3202 H   0  0  0  1  0  0  0  0  0  0  0  0
    1.7826    3.6462   -2.9754 H   0  0  0  1  0  0  0  0  0  0  0  0
    1.3340    4.9141   -1.8594 H   0  0  0  1  0  0  0  0  0  0  0  0
    1.2759   -1.4520    0.6742 H   0  0  0  1  0  0  0  0  0  0  0  0
   -0.1120   -2.4705    0.3759 H   0  0  0  1  0  0  0  0  0  0  0  0
   -0.0091   -1.5444    1.8544 H   0  0  0  1  0  0  0  0  0  0  0  0
   -4.1391    3.2985    1.5955 F   0  0  0  1  0  0  0  0  0  0  0  0
   -3.3302    4.3097    1.2252 C   0  0  0  1  0  0  0  0  0  0  0  0
   -1.9734    4.0909    1.0783 C   0  0  0  1  0  0  0  0  0  0  0  0
   -1.1417    5.1304    0.6920 C   0  0  0  1  0  0  0  0  0  0  0  0
   -1.6684    6.3868    0.4589 C   0  0  0  1  0  0  0  0  0  0  0  0
   -3.0292    6.6060    0.6062 C   0  0  0  1  0  0  0  0  0  0  0  0
   -3.8585    5.5697    0.9914 C   0  0  0  1  0  0  0  0  0  0  0  0
   -1.3970    2.7192    1.3387 C   0  0  0  1  0  0  0  0  0  0  0  0
   -0.1214    4.9649    0.5776 H   0  0  0  1  0  0  0  0  0  0  0  0
   -1.0438    7.1677    0.1729 H   0  0  0  1  0  0  0  0  0  0  0  0
   -3.4261    7.5504    0.4269 H   0  0  0  1  0  0  0  0  0  0  0  0
   -4.8789    5.7352    1.1058 H   0  0  0  1  0  0  0  0  0  0  0  0
   -0.6622    2.8112    2.1111 H   0  0  0  1  0  0  0  0  0  0  0  0
   -2.1912    2.0858    1.6748 H   0  0  0  1  0  0  0  0  0  0  0  0
  1  4  1  0  0  0  0
  2  4  1  0  0  0  0
  2  5  2  0  0  0  0
  2  6  1  0  0  0  0
  3  4  1  0  0  0  0
  3  7  1  0  0  0  0
  3  8  1  0  0  0  0
  4 26  1  0  0  0  0
  6  9  1  0  0  0  0
  6 12  1  0  0  0  0
  8 10  1  0  0  0  0
  8 11  2  0  0  0  0
  9 13  1  0  0  0  0
  9 14  1  0  0  0  0
  9 15  1  0  0  0  0
 10 16  1  0  0  0  0
 10 17  1  0  0  0  0
 10 18  1  0  0  0  0
 19 20  1  0  0  0  0
 20 21  4  0  0  0  0
 20 25  4  0  0  0  0
 21 22  4  0  0  0  0
 21 26  1  0  0  0  0
 22 23  4  0  0  0  0
 22 27  1  0  0  0  0
 23 24  4  0  0  0  0
 23 28  1  0  0  0  0
 24 25  4  0  0  0  0
 24 29  1  0  0  0  0
 25 30  1  0  0  0  0
 26 31  1  0  0  0  0
 26 32  1  0  0  0  0
M  END
> <BCLConfClusterSize>
1

> <ConfClashScore>
0 

> <ConfOneFourInteractionScore>
-0.975259 

> <ConfScore>
0.0575107 

> <ConfScorePBest>
0.00393197 

> <ConfTolerance>
0.517396 

> <RosettaParamsInstructions>
M  ROOT 3
M  POLY_N_BB 3
M  POLY_CA_BB 4
M  POLY_C_BB 2
M  POLY_O_BB 5
M  POLY_IGNORE 9 10 11 12 13 14 15 16 17 18 
M  POLY_UPPER 6
M  POLY_LOWER 8
M  POLY_CHG 0
M  POLY_PROPERTIES ALPHA_AA L_AA PROTEIN AROMATIC POLYMER 
M  END

$$$$



 32 32  0  0  0  0  0  0  0  0999 V2000
   -1.7616    2.5241    3.3932 H   0  0  0  1  0  0  0  0  0  0  0  0
   -0.4554    0.9664    2.8258 C   0  0  0  1  0  0  0  0  0  0  0  0
    0.1337    3.3097    3.1406 N   0  0  0  1  0  0  0  0  0  0  0  0
   -0.9293    2.4037    2.7316 C   0  0  0  1  0  0  0  0  0  0  0  0
   -0.9884    0.0804    2.1782 O   0  0  0  1  0  0  0  0  0  0  0  0
    0.5692    0.7462    3.6544 N   0  0  0  1  0  0  0  0  0  0  0  0
   -0.0888    4.0021    3.7974 H   0  0  0  1  0  0  0  0  0  0  0  0
    1.3900    3.2686    2.6879 C   0  0  0  1  0  0  0  0  0  0  0  0
    1.1011   -0.5868    3.8957 C   0  0  0  1  0  0  0  0  0  0  0  0
    2.3495    4.2603    3.3165 C   0  0  0  1  0  0  0  0  0  0  0  0
    1.7631    2.4834    1.8173 O   0  0  0  1  0  0  0  0  0  0  0  0
    0.9767    1.5087    4.1158 H   0  0  0  1  0  0  0  0  0  0  0  0
    0.5248   -1.3053    3.3512 H   0  0  0  1  0  0  0  0  0  0  0  0
    1.0496   -0.8071    4.9415 H   0  0  0  1  0  0  0  0  0  0  0  0
    2.1201   -0.6279    3.5718 H   0  0  0  1  0  0  0  0  0  0  0  0
    2.3710    4.1139    4.3762 H   0  0  0  1  0  0  0  0  0  0  0  0
    2.0242    5.2566    3.1009 H   0  0  0  1  0  0  0  0  0  0  0  0
    3.3303    4.1103    2.9160 H   0  0  0  1  0  0  0  0  0  0  0  0
   -4.1397    3.3020    1.6037 F   0  0  0  1  0  0  0  0  0  0  0  0
   -3.3318    4.3116    1.2268 C   0  0  0  1  0  0  0  0  0  0  0  0
   -1.9715    4.0913    1.0765 C   0  0  0  1  0  0  0  0  0  0  0  0
   -1.1417    5.1287    0.6949 C   0  0  0  1  0  0  0  0  0  0  0  0
   -1.6704    6.3879    0.4572 C   0  0  0  1  0  0  0  0  0  0  0  0
   -3.0268    6.6072    0.6071 C   0  0  0  1  0  0  0  0  0  0  0  0
   -3.8591    5.5669    0.9899 C   0  0  0  1  0  0  0  0  0  0  0  0
   -1.3962    2.7179    1.3298 C   0  0  0  1  0  0  0  0  0  0  0  0
   -0.1205    4.9645    0.5860 H   0  0  0  1  0  0  0  0  0  0  0  0
   -1.0466    7.1674    0.1661 H   0  0  0  1  0  0  0  0  0  0  0  0
   -3.4230    7.5528    0.4327 H   0  0  0  1  0  0  0  0  0  0  0  0
   -4.8803    5.7310    1.0988 H   0  0  0  1  0  0  0  0  0  0  0  0
   -2.1506    2.0029    1.0758 H   0  0  0  1  0  0  0  0  0  0  0  0
   -0.5561    2.5975    0.6780 H   0  0  0  1  0  0  0  0  0  0  0  0
  1  4  1  0  0  0  0
  2  4  1  0  0  0  0
  2  5  2  0  0  0  0
  2  6  1  0  0  0  0
  3  4  1  0  0  0  0
  3  7  1  0  0  0  0
  3  8  1  0  0  0  0
  4 26  1  0  0  0  0
  6  9  1  0  0  0  0
  6 12  1  0  0  0  0
  8 10  1  0  0  0  0
  8 11  2  0  0  0  0
  9 13  1  0  0  0  0
  9 14  1  0  0  0  0
  9 15  1  0  0  0  0
 10 16  1  0  0  0  0
 10 17  1  0  0  0  0
 10 18  1  0  0  0  0
 19 20  1  0  0  0  0
 20 21  4  0  0  0  0
 20 25  4  0  0  0  0
 21 22  4  0  0  0  0
 21 26  1  0  0  0  0
 22 23  4  0  0  0  0
 22 27  1  0  0  0  0
 23 24  4  0  0  0  0
 23 28  1  0  0  0  0
 24 25  4  0  0  0  0
 24 29  1  0  0  0  0
 25 30  1  0  0  0  0
 26 31  1  0  0  0  0
 26 32  1  0  0  0  0
M  END
> <BCLConfClusterSize>
1

> <ConfClashScore>
0 

> <ConfOneFourInteractionScore>
-0.938696 

> <ConfScore>
0.0599283 

> <ConfScorePBest>
0.00390349 

> <ConfTolerance>
0.309252 

> <RosettaParamsInstructions>
M  ROOT 3
M  POLY_N_BB 3
M  POLY_CA_BB 4
M  POLY_C_BB 2
M  POLY_O_BB 5
M  POLY_IGNORE 9 10 11 12 13 14 15 16 17 18 
M  POLY_UPPER 6
M  POLY_LOWER 8
M  POLY_CHG 0
M  POLY_PROPERTIES ALPHA_AA L_AA PROTEIN AROMATIC POLYMER 
M  END

$$$$



 32 32  0  0  0  0  0  0  0  0999 V2000
   -3.1290    1.5473    0.9718 H   0  0  0  1  0  0  0  0  0  0  0  0
   -2.2141    1.9241   -0.8983 C   0  0  0  1  0  0  0  0  0  0  0  0
   -1.4760    0.3187    0.7867 N   0  0  0  1  0  0  0  0  0  0  0  0
   -2.1320    1.6023    0.5875 C   0  0  0  1  0  0  0  0  0  0  0  0
   -1.2259    1.8449   -1.6232 O   0  0  0  1  0  0  0  0  0  0  0  0
   -3.4176    2.2922   -1.3467 N   0  0  0  1  0  0  0  0  0  0  0  0
   -0.6438    0.2696    1.3019 H   0  0  0  1  0  0  0  0  0  0  0  0
   -2.0059   -0.7931    0.2688 C   0  0  0  1  0  0  0  0  0  0  0  0
   -3.6354    2.7330   -2.7164 C   0  0  0  1  0  0  0  0  0  0  0  0
   -1.2378   -2.0736    0.5323 C   0  0  0  1  0  0  0  0  0  0  0  0
   -3.0494   -0.7971   -0.3829 O   0  0  0  1  0  0  0  0  0  0  0  0
   -4.1803    2.2642   -0.7319 H   0  0  0  1  0  0  0  0  0  0  0  0
   -2.7061    3.0501   -3.1416 H   0  0  0  1  0  0  0  0  0  0  0  0
   -4.3271    3.5494   -2.7224 H   0  0  0  1  0  0  0  0  0  0  0  0
   -4.0332    1.9237   -3.2924 H   0  0  0  1  0  0  0  0  0  0  0  0
   -1.4264   -2.4039    1.5325 H   0  0  0  1  0  0  0  0  0  0  0  0
   -0.1905   -1.8930    0.4081 H   0  0  0  1  0  0  0  0  0  0  0  0
   -1.5545   -2.8276   -0.1577 H   0  0  0  1  0  0  0  0  0  0  0  0
   -4.1392    3.2987    1.5954 F   0  0  0  1  0  0  0  0  0  0  0  0
   -3.3304    4.3099    1.2251 C   0  0  0  1  0  0  0  0  0  0  0  0
   -1.9736    4.0912    1.0782 C   0  0  0  1  0  0  0  0  0  0  0  0
   -1.1419    5.1307    0.6919 C   0  0  0  1  0  0  0  0  0  0  0  0
   -1.6685    6.3871    0.4588 C   0  0  0  1  0  0  0  0  0  0  0  0
   -3.0293    6.6064    0.6062 C   0  0  0  1  0  0  0  0  0  0  0  0
   -3.8587    5.5700    0.9913 C   0  0  0  1  0  0  0  0  0  0  0  0
   -1.3954    2.7156    1.3394 C   0  0  0  1  0  0  0  0  0  0  0  0
   -0.1216    4.9652    0.5775 H   0  0  0  1  0  0  0  0  0  0  0  0
   -1.0439    7.1680    0.1729 H   0  0  0  1  0  0  0  0  0  0  0  0
   -3.4262    7.5508    0.4269 H   0  0  0  1  0  0  0  0  0  0  0  0
   -4.8790    5.7356    1.1058 H   0  0  0  1  0  0  0  0  0  0  0  0
   -0.3703    2.7131    1.0327 H   0  0  0  1  0  0  0  0  0  0  0  0
   -1.4548    2.5148    2.3887 H   0  0  0  1  0  0  0  0  0  0  0  0
  1  4  1  0  0  0  0
  2  4  1  0  0  0  0
  2  5  2  0  0  0  0
  2  6  1  0  0  0  0
  3  4  1  0  0  0  0
  3  7  1  0  0  0  0
  3  8  1  0  0  0  0
  4 26  1  0  0  0  0
  6  9  1  0  0  0  0
  6 12  1  0  0  0  0
  8 10  1  0  0  0  0
  8 11  2  0  0  0  0
  9 13  1  0  0  0  0
  9 14  1  0  0  0  0
  9 15  1  0  0  0  0
 10 16  1  0  0  0  0
 10 17  1  0  0  0  0
 10 18  1  0  0  0  0
 19 20  1  0  0  0  0
 20 21  4  0  0  0  0
 20 25  4  0  0  0  0
 21 22  4  0  0  0  0
 21 26  1  0  0  0  0
 22 23  4  0  0  0  0
 22 27  1  0  0  0  0
 23 24  4  0  0  0  0
 23 28  1  0  0  0  0
 24 25  4  0  0  0  0
 24 29  1  0  0  0  0
 25 30  1  0  0  0  0
 26 31  1  0  0  0  0
 26 32  1  0  0  0  0
M  END
> <BCLConfClusterSize>
1

> <ConfClashScore>
0 

> <ConfOneFourInteractionScore>
-0.985807 

> <ConfScore>
0.0615381 

> <ConfScorePBest>
0.00387501 

> <ConfTolerance>
0.66883 

> <RosettaParamsInstructions>
M  ROOT 3
M  POLY_N_BB 3
M  POLY_CA_BB 4
M  POLY_C_BB 2
M  POLY_O_BB 5
M  POLY_IGNORE 9 10 11 12 13 14 15 16 17 18 
M  POLY_UPPER 6
M  POLY_LOWER 8
M  POLY_CHG 0
M  POLY_PROPERTIES ALPHA_AA L_AA PROTEIN AROMATIC POLYMER 
M  END

$$$$



 32 32  0  0  0  0  0  0  0  0999 V2000
   -2.0857    2.7139    3.3555 H   0  0  0  1  0  0  0  0  0  0  0  0
   -0.7907    1.0410    3.0695 C   0  0  0  1  0  0  0  0  0  0  0  0
   -0.1188    3.3949    3.2694 N   0  0  0  1  0  0  0  0  0  0  0  0
   -1.1786    2.4996    2.8299 C   0  0  0  1  0  0  0  0  0  0  0  0
   -1.6351    0.1952    3.3526 O   0  0  0  1  0  0  0  0  0  0  0  0
    0.5154    0.7580    2.9501 N   0  0  0  1  0  0  0  0  0  0  0  0
    0.7733    3.3014    2.8747 H   0  0  0  1  0  0  0  0  0  0  0  0
   -0.3218    4.3492    4.2013 C   0  0  0  1  0  0  0  0  0  0  0  0
    0.9825   -0.6125    3.0963 C   0  0  0  1  0  0  0  0  0  0  0  0
    0.8553    5.2058    4.6096 C   0  0  0  1  0  0  0  0  0  0  0  0
   -1.4311    4.5195    4.7055 O   0  0  0  1  0  0  0  0  0  0  0  0
    1.1562    1.4758    2.7640 H   0  0  0  1  0  0  0  0  0  0  0  0
    0.2598   -1.2825    2.6794 H   0  0  0  1  0  0  0  0  0  0  0  0
    1.1170   -0.8343    4.1344 H   0  0  0  1  0  0  0  0  0  0  0  0
    1.9139   -0.7283    2.5827 H   0  0  0  1  0  0  0  0  0  0  0  0
    1.7642    4.6660    4.4442 H   0  0  0  1  0  0  0  0  0  0  0  0
    0.7722    5.4545    5.6470 H   0  0  0  1  0  0  0  0  0  0  0  0
    0.8624    6.1030    4.0267 H   0  0  0  1  0  0  0  0  0  0  0  0
   -4.1391    3.2983    1.5955 F   0  0  0  1  0  0  0  0  0  0  0  0
   -3.3303    4.3096    1.2252 C   0  0  0  1  0  0  0  0  0  0  0  0
   -1.9735    4.0910    1.0783 C   0  0  0  1  0  0  0  0  0  0  0  0
   -1.1416    5.1304    0.6920 C   0  0  0  1  0  0  0  0  0  0  0  0
   -1.6684    6.3867    0.4589 C   0  0  0  1  0  0  0  0  0  0  0  0
   -3.0292    6.6062    0.6062 C   0  0  0  1  0  0  0  0  0  0  0  0
   -3.8584    5.5697    0.9914 C   0  0  0  1  0  0  0  0  0  0  0  0
   -1.3971    2.7194    1.3387 C   0  0  0  1  0  0  0  0  0  0  0  0
   -0.1213    4.9648    0.5776 H   0  0  0  1  0  0  0  0  0  0  0  0
   -1.0438    7.1676    0.1730 H   0  0  0  1  0  0  0  0  0  0  0  0
   -3.4261    7.5506    0.4269 H   0  0  0  1  0  0  0  0  0  0  0  0
   -4.8788    5.7352    1.1058 H   0  0  0  1  0  0  0  0  0  0  0  0
   -2.0752    1.9781    0.9705 H   0  0  0  1  0  0  0  0  0  0  0  0
   -0.4600    2.6303    0.8300 H   0  0  0  1  0  0  0  0  0  0  0  0
  1  4  1  0  0  0  0
  2  4  1  0  0  0  0
  2  5  2  0  0  0  0
  2  6  1  0  0  0  0
  3  4  1  0  0  0  0
  3  7  1  0  0  0  0
  3  8  1  0  0  0  0
  4 26  1  0  0  0  0
  6  9  1  0  0  0  0
  6 12  1  0  0  0  0
  8 10  1  0  0  0  0
  8 11  2  0  0  0  0
  9 13  1  0  0  0  0
  9 14  1  0  0  0  0
  9 15  1  0  0  0  0
 10 16  1  0  0  0  0
 10 17  1  0  0  0  0
 10 18  1  0  0  0  0
 19 20  1  0  0  0  0
 20 21  4  0  0  0  0
 20 25  4  0  0  0  0
 21 22  4  0  0  0  0
 21 26  1  0  0  0  0
 22 23  4  0  0  0  0
 22 27  1  0  0  0  0
 23 24  4  0  0  0  0
 23 28  1  0  0  0  0
 24 25  4  0  0  0  0
 24 29  1  0  0  0  0
 25 30  1  0  0  0  0
 26 31  1  0  0  0  0
 26 32  1  0  0  0  0
M  END
> <BCLConfClusterSize>
1

> <ConfClashScore>
0 

> <ConfOneFourInteractionScore>
-0.956443 

> <ConfScore>
0.0685959 

> <ConfScorePBest>
0.00384653 

> <ConfTolerance>
0.393637 

> <RosettaParamsInstructions>
M  ROOT 3
M  POLY_N_BB 3
M  POLY_CA_BB 4
M  POLY_C_BB 2
M  POLY_O_BB 5
M  POLY_IGNORE 9 10 11 12 13 14 15 16 17 18 
M  POLY_UPPER 6
M  POLY_LOWER 8
M  POLY_CHG 0
M  POLY_PROPERTIES ALPHA_AA L_AA PROTEIN AROMATIC POLYMER 
M  END

$$$$



 32 32  0  0  0  0  0  0  0  0999 V2000
   -2.0100    1.9927   -0.5269 H   0  0  0  1  0  0  0  0  0  0  0  0
    0.0863    2.1219   -0.5799 C   0  0  0  1  0  0  0  0  0  0  0  0
   -1.2810    0.4155    0.5748 N   0  0  0  1  0  0  0  0  0  0  0  0
   -1.2038    1.8057    0.1513 C   0  0  0  1  0  0  0  0  0  0  0  0
    0.1852    3.1076   -1.2920 O   0  0  0  1  0  0  0  0  0  0  0  0
    1.0924    1.2538   -0.3895 N   0  0  0  1  0  0  0  0  0  0  0  0
   -1.2784    0.2123    1.5335 H   0  0  0  1  0  0  0  0  0  0  0  0
   -1.3553   -0.5934   -0.2980 C   0  0  0  1  0  0  0  0  0  0  0  0
    2.3779    1.3951   -1.0570 C   0  0  0  1  0  0  0  0  0  0  0  0
   -1.3479   -1.9857    0.3025 C   0  0  0  1  0  0  0  0  0  0  0  0
   -1.4257   -0.4231   -1.5144 O   0  0  0  1  0  0  0  0  0  0  0  0
    0.9566    0.4987    0.2201 H   0  0  0  1  0  0  0  0  0  0  0  0
    2.8564    0.4399   -1.1165 H   0  0  0  1  0  0  0  0  0  0  0  0
    2.9958    2.0693   -0.5014 H   0  0  0  1  0  0  0  0  0  0  0  0
    2.2267    1.7801   -2.0439 H   0  0  0  1  0  0  0  0  0  0  0  0
   -1.8629   -1.9730    1.2403 H   0  0  0  1  0  0  0  0  0  0  0  0
   -0.3374   -2.3027    0.4551 H   0  0  0  1  0  0  0  0  0  0  0  0
   -1.8383   -2.6640   -0.3642 H   0  0  0  1  0  0  0  0  0  0  0  0
   -4.1391    3.2985    1.5955 F   0  0  0  1  0  0  0  0  0  0  0  0
   -3.3302    4.3097    1.2252 C   0  0  0  1  0  0  0  0  0  0  0  0
   -1.9734    4.0909    1.0783 C   0  0  0  1  0  0  0  0  0  0  0  0
   -1.1417    5.1304    0.6920 C   0  0  0  1  0  0  0  0  0  0  0  0
   -1.6684    6.3868    0.4589 C   0  0  0  1  0  0  0  0  0  0  0  0
   -3.0292    6.6060    0.6062 C   0  0  0  1  0  0  0  0  0  0  0  0
   -3.8585    5.5697    0.9914 C   0  0  0  1  0  0  0  0  0  0  0  0
   -1.3970    2.7192    1.3387 C   0  0  0  1  0  0  0  0  0  0  0  0
   -0.1214    4.9649    0.5776 H   0  0  0  1  0  0  0  0  0  0  0  0
   -1.0438    7.1677    0.1729 H   0  0  0  1  0  0  0  0  0  0  0  0
   -3.4261    7.5504    0.4269 H   0  0  0  1  0  0  0  0  0  0  0  0
   -4.8789    5.7352    1.1058 H   0  0  0  1  0  0  0  0  0  0  0  0
   -0.4396    2.8559    1.7966 H   0  0  0  1  0  0  0  0  0  0  0  0
   -2.0521    2.2212    2.0226 H   0  0  0  1  0  0  0  0  0  0  0  0
  1  4  1  0  0  0  0
  2  4  1  0  0  0  0
  2  5  2  0  0  0  0
  2  6  1  0  0  0  0
  3  4  1  0  0  0  0
  3  7  1  0  0  0  0
  3  8  1  0  0  0  0
  4 26  1  0  0  0  0
  6  9  1  0  0  0  0
  6 12  1  0  0  0  0
  8 10  1  0  0  0  0
  8 11  2  0  0  0  0
  9 13  1  0  0  0  0
  9 14  1  0  0  0  0
  9 15  1  0  0  0  0
 10 16  1  0  0  0  0
 10 17  1  0  0  0  0
 10 18  1  0  0  0  0
 19 20  1  0  0  0  0
 20 21  4  0  0  0  0
 20 25  4  0  0  0  0
 21 22  4  0  0  0  0
 21 26  1  0  0  0  0
 22 23  4  0  0  0  0
 22 27  1  0  0  0  0
 23 24  4  0  0  0  0
 23 28  1  0  0  0  0
 24 25  4  0  0  0  0
 24 29  1  0  0  0  0
 25 30  1  0  0  0  0
 26 31  1  0  0  0  0
 26 32  1  0  0  0  0
M  END
> <BCLConfClusterSize>
1

> <ConfClashScore>
0 

> <ConfOneFourInteractionScore>
-0.952638 

> <ConfScore>
0.0699383 

> <ConfScorePBest>
0.00381805 

> <ConfTolerance>
0.740423 

> <RosettaParamsInstructions>
M  ROOT 3
M  POLY_N_BB 3
M  POLY_CA_BB 4
M  POLY_C_BB 2
M  POLY_O_BB 5
M  POLY_IGNORE 9 10 11 12 13 14 15 16 17 18 
M  POLY_UPPER 6
M  POLY_LOWER 8
M  POLY_CHG 0
M  POLY_PROPERTIES ALPHA_AA L_AA PROTEIN AROMATIC POLYMER 
M  END

$$$$



 32 32  0  0  0  0  0  0  0  0999 V2000
   -1.0515    0.8327    0.4706 H   0  0  0  1  0  0  0  0  0  0  0  0
   -2.5908    1.7201   -0.6654 C   0  0  0  1  0  0  0  0  0  0  0  0
   -0.1627    2.3079   -0.6767 N   0  0  0  1  0  0  0  0  0  0  0  0
   -1.2910    1.8154    0.1214 C   0  0  0  1  0  0  0  0  0  0  0  0
   -2.7766    2.4230   -1.6451 O   0  0  0  1  0  0  0  0  0  0  0  0
   -3.4332    0.7634   -0.2444 N   0  0  0  1  0  0  0  0  0  0  0  0
    0.2928    3.1288   -0.3956 H   0  0  0  1  0  0  0  0  0  0  0  0
    0.2691    1.6708   -1.7825 C   0  0  0  1  0  0  0  0  0  0  0  0
   -4.7357    0.5497   -0.8572 C   0  0  0  1  0  0  0  0  0  0  0  0
    1.3890    2.4014   -2.5121 C   0  0  0  1  0  0  0  0  0  0  0  0
   -0.1718    0.6109   -2.1883 O   0  0  0  1  0  0  0  0  0  0  0  0
   -3.1615    0.1890    0.5017 H   0  0  0  1  0  0  0  0  0  0  0  0
   -4.6502    0.6430   -1.9197 H   0  0  0  1  0  0  0  0  0  0  0  0
   -5.4265    1.2796   -0.4898 H   0  0  0  1  0  0  0  0  0  0  0  0
   -5.0882   -0.4305   -0.6127 H   0  0  0  1  0  0  0  0  0  0  0  0
    2.2578    1.7780   -2.5485 H   0  0  0  1  0  0  0  0  0  0  0  0
    1.6217    3.3071   -1.9921 H   0  0  0  1  0  0  0  0  0  0  0  0
    1.0741    2.6324   -3.5083 H   0  0  0  1  0  0  0  0  0  0  0  0
   -4.1392    3.2983    1.5955 F   0  0  0  1  0  0  0  0  0  0  0  0
   -3.3303    4.3095    1.2252 C   0  0  0  1  0  0  0  0  0  0  0  0
   -1.9735    4.0910    1.0783 C   0  0  0  1  0  0  0  0  0  0  0  0
   -1.1417    5.1304    0.6920 C   0  0  0  1  0  0  0  0  0  0  0  0
   -1.6684    6.3867    0.4589 C   0  0  0  1  0  0  0  0  0  0  0  0
   -3.0292    6.6061    0.6062 C   0  0  0  1  0  0  0  0  0  0  0  0
   -3.8585    5.5697    0.9914 C   0  0  0  1  0  0  0  0  0  0  0  0
   -1.3970    2.7194    1.3387 C   0  0  0  1  0  0  0  0  0  0  0  0
   -0.1213    4.9649    0.5776 H   0  0  0  1  0  0  0  0  0  0  0  0
   -1.0438    7.1675    0.1730 H   0  0  0  1  0  0  0  0  0  0  0  0
   -3.4261    7.5506    0.4269 H   0  0  0  1  0  0  0  0  0  0  0  0
   -4.8788    5.7352    1.1058 H   0  0  0  1  0  0  0  0  0  0  0  0
   -0.4142    2.8456    1.7426 H   0  0  0  1  0  0  0  0  0  0  0  0
   -2.0193    2.2311    2.0592 H   0  0  0  1  0  0  0  0  0  0  0  0
  1  4  1  0  0  0  0
  2  4  1  0  0  0  0
  2  5  2  0  0  0  0
  2  6  1  0  0  0  0
  3  4  1  0  0  0  0
  3  7  1  0  0  0  0
  3  8  1  0  0  0  0
  4 26  1  0  0  0  0
  6  9  1  0  0  0  0
  6 12  1  0  0  0  0
  8 10  1  0  0  0  0
  8 11  2  0  0  0  0
  9 13  1  0  0  0  0
  9 14  1  0  0  0  0
  9 15  1  0  0  0  0
 10 16  1  0  0  0  0
 10 17  1  0  0  0  0
 10 18  1  0  0  0  0
 19 20  1  0  0  0  0
 20 21  4  0  0  0  0
 20 25  4  0  0  0  0
 21 22  4  0  0  0  0
 21 26  1  0  0  0  0
 22 23  4  0  0  0  0
 22 27  1  0  0  0  0
 23 24  4  0  0  0  0
 23 28  1  0  0  0  0
 24 25  4  0  0  0  0
 24 29  1  0  0  0  0
 25 30  1  0  0  0  0
 26 31  1  0  0  0  0
 26 32  1  0  0  0  0
M  END
> <BCLConfClusterSize>
1

> <ConfClashScore>
0 

> <ConfOneFourInteractionScore>
-0.982563 

> <ConfScore>
0.0700763 

> <ConfScorePBest>
0.00378957 

> <ConfTolerance>
0.371545 

> <RosettaParamsInstructions>
M  ROOT 3
M  POLY_N_BB 3
M  POLY_CA_BB 4
M  POLY_C_BB 2
M  POLY_O_BB 5
M  POLY_IGNORE 9 10 11 12 13 14 15 16 17 18 
M  POLY_UPPER 6
M  POLY_LOWER 8
M  POLY_CHG 0
M  POLY_PROPERTIES ALPHA_AA L_AA PROTEIN AROMATIC POLYMER 
M  END

$$$$



 32 32  0  0  0  0  0  0  0  0999 V2000
   -1.0871    0.8515    0.3822 H   0  0  0  1  0  0  0  0  0  0  0  0
   -3.1045    1.4041    0.0507 C   0  0  0  1  0  0  0  0  0  0  0  0
   -1.1365    2.3158   -1.0767 N   0  0  0  1  0  0  0  0  0  0  0  0
   -1.6242    1.7531    0.1736 C   0  0  0  1  0  0  0  0  0  0  0  0
   -3.7195    1.1315    1.0809 O   0  0  0  1  0  0  0  0  0  0  0  0
   -3.6580    1.4124   -1.1715 N   0  0  0  1  0  0  0  0  0  0  0  0
   -1.1409    3.2891   -1.1909 H   0  0  0  1  0  0  0  0  0  0  0  0
   -0.6829    1.5516   -2.0744 C   0  0  0  1  0  0  0  0  0  0  0  0
   -5.0494    1.0231   -1.3461 C   0  0  0  1  0  0  0  0  0  0  0  0
   -0.0926    2.2944   -3.2571 C   0  0  0  1  0  0  0  0  0  0  0  0
   -0.7325    0.3246   -2.0526 O   0  0  0  1  0  0  0  0  0  0  0  0
   -3.1243    1.6812   -1.9482 H   0  0  0  1  0  0  0  0  0  0  0  0
   -5.2151    0.7367   -2.3637 H   0  0  0  1  0  0  0  0  0  0  0  0
   -5.6840    1.8487   -1.1003 H   0  0  0  1  0  0  0  0  0  0  0  0
   -5.2719    0.1975   -0.7028 H   0  0  0  1  0  0  0  0  0  0  0  0
   -0.3603    1.7929   -4.1636 H   0  0  0  1  0  0  0  0  0  0  0  0
    0.9732    2.3205   -3.1657 H   0  0  0  1  0  0  0  0  0  0  0  0
   -0.4740    3.2939   -3.2767 H   0  0  0  1  0  0  0  0  0  0  0  0
   -4.1398    3.3019    1.6037 F   0  0  0  1  0  0  0  0  0  0  0  0
   -3.3319    4.3114    1.2268 C   0  0  0  1  0  0  0  0  0  0  0  0
   -1.9715    4.0914    1.0765 C   0  0  0  1  0  0  0  0  0  0  0  0
   -1.1416    5.1287    0.6948 C   0  0  0  1  0  0  0  0  0  0  0  0
   -1.6705    6.3878    0.4572 C   0  0  0  1  0  0  0  0  0  0  0  0
   -3.0268    6.6073    0.6071 C   0  0  0  1  0  0  0  0  0  0  0  0
   -3.8590    5.5669    0.9899 C   0  0  0  1  0  0  0  0  0  0  0  0
   -1.3961    2.7180    1.3297 C   0  0  0  1  0  0  0  0  0  0  0  0
   -0.1204    4.9646    0.5860 H   0  0  0  1  0  0  0  0  0  0  0  0
   -1.0467    7.1673    0.1662 H   0  0  0  1  0  0  0  0  0  0  0  0
   -3.4230    7.5529    0.4327 H   0  0  0  1  0  0  0  0  0  0  0  0
   -4.8802    5.7311    1.0987 H   0  0  0  1  0  0  0  0  0  0  0  0
   -0.3426    2.8144    1.4901 H   0  0  0  1  0  0  0  0  0  0  0  0
   -1.8554    2.3129    2.2071 H   0  0  0  1  0  0  0  0  0  0  0  0
  1  4  1  0  0  0  0
  2  4  1  0  0  0  0
  2  5  2  0  0  0  0
  2  6  1  0  0  0  0
  3  4  1  0  0  0  0
  3  7  1  0  0  0  0
  3  8  1  0  0  0  0
  4 26  1  0  0  0  0
  6  9  1  0  0  0  0
  6 12  1  0  0  0  0
  8 10  1  0  0  0  0
  8 11  2  0  0  0  0
  9 13  1  0  0  0  0
  9 14  1  0  0  0  0
  9 15  1  0  0  0  0
 10 16  1  0  0  0  0
 10 17  1  0  0  0  0
 10 18  1  0  0  0  0
 19 20  1  0  0  0  0
 20 21  4  0  0  0  0
 20 25  4  0  0  0  0
 21 22  4  0  0  0  0
 21 26  1  0  0  0  0
 22 23  4  0  0  0  0
 22 27  1  0  0  0  0
 23 24  4  0  0  0  0
 23 28  1  0  0  0  0
 24 25  4  0  0  0  0
 24 29  1  0  0  0  0
 25 30  1  0  0  0  0
 26 31  1  0  0  0  0
 26 32  1  0  0  0  0
M  END
> <BCLConfClusterSize>
1

> <ConfClashScore>
0 

> <ConfOneFourInteractionScore>
-0.931937 

> <ConfScore>
0.0711889 

> <ConfScorePBest>
0.00376109 

> <ConfTolerance>
0.489208 

> <RosettaParamsInstructions>
M  ROOT 3
M  POLY_N_BB 3
M  POLY_CA_BB 4
M  POLY_C_BB 2
M  POLY_O_BB 5
M  POLY_IGNORE 9 10 11 12 13 14 15 16 17 18 
M  POLY_UPPER 6
M  POLY_LOWER 8
M  POLY_CHG 0
M  POLY_PROPERTIES ALPHA_AA L_AA PROTEIN AROMATIC POLYMER 
M  END

$$$$



 32 32  0  0  0  0  0  0  0  0999 V2000
   -0.7134    1.4894    2.8876 H   0  0  0  1  0  0  0  0  0  0  0  0
    0.3465    3.2775    3.1226 C   0  0  0  1  0  0  0  0  0  0  0  0
   -1.9653    2.8623    3.7606 N   0  0  0  1  0  0  0  0  0  0  0  0
   -0.9312    2.5311    2.7765 C   0  0  0  1  0  0  0  0  0  0  0  0
    0.3208    4.4520    3.4874 O   0  0  0  1  0  0  0  0  0  0  0  0
    1.4763    2.5785    3.0038 N   0  0  0  1  0  0  0  0  0  0  0  0
   -2.7530    3.3662    3.4676 H   0  0  0  1  0  0  0  0  0  0  0  0
   -1.8685    2.4896    5.0841 C   0  0  0  1  0  0  0  0  0  0  0  0
    2.8142    3.1188    3.1932 C   0  0  0  1  0  0  0  0  0  0  0  0
   -2.9475    3.0045    5.9914 C   0  0  0  1  0  0  0  0  0  0  0  0
   -0.9483    1.7848    5.4536 O   0  0  0  1  0  0  0  0  0  0  0  0
    1.3996    1.6295    2.7715 H   0  0  0  1  0  0  0  0  0  0  0  0
    2.8024    4.1733    3.0121 H   0  0  0  1  0  0  0  0  0  0  0  0
    3.4891    2.6473    2.5098 H   0  0  0  1  0  0  0  0  0  0  0  0
    3.1348    2.9332    4.1970 H   0  0  0  1  0  0  0  0  0  0  0  0
   -2.6171    3.9061    6.4635 H   0  0  0  1  0  0  0  0  0  0  0  0
   -3.1655    2.2703    6.7385 H   0  0  0  1  0  0  0  0  0  0  0  0
   -3.8292    3.2044    5.4190 H   0  0  0  1  0  0  0  0  0  0  0  0
   -4.1391    3.2983    1.5955 F   0  0  0  1  0  0  0  0  0  0  0  0
   -3.3303    4.3096    1.2252 C   0  0  0  1  0  0  0  0  0  0  0  0
   -1.9735    4.0910    1.0783 C   0  0  0  1  0  0  0  0  0  0  0  0
   -1.1416    5.1304    0.6920 C   0  0  0  1  0  0  0  0  0  0  0  0
   -1.6684    6.3867    0.4589 C   0  0  0  1  0  0  0  0  0  0  0  0
   -3.0292    6.6062    0.6062 C   0  0  0  1  0  0  0  0  0  0  0  0
   -3.8584    5.5697    0.9914 C   0  0  0  1  0  0  0  0  0  0  0  0
   -1.3971    2.7194    1.3387 C   0  0  0  1  0  0  0  0  0  0  0  0
   -0.1213    4.9648    0.5776 H   0  0  0  1  0  0  0  0  0  0  0  0
   -1.0438    7.1676    0.1730 H   0  0  0  1  0  0  0  0  0  0  0  0
   -3.4261    7.5506    0.4269 H   0  0  0  1  0  0  0  0  0  0  0  0
   -4.8788    5.7352    1.1058 H   0  0  0  1  0  0  0  0  0  0  0  0
   -2.1486    1.9881    1.1257 H   0  0  0  1  0  0  0  0  0  0  0  0
   -0.5608    2.5722    0.6877 H   0  0  0  1  0  0  0  0  0  0  0  0
  1  4  1  0  0  0  0
  2  4  1  0  0  0  0
  2  5  2  0  0  0  0
  2  6  1  0  0  0  0
  3  4  1  0  0  0  0
  3  7  1  0  0  0  0
  3  8  1  0  0  0  0
  4 26  1  0  0  0  0
  6  9  1  0  0  0  0
  6 12  1  0  0  0  0
  8 10  1  0  0  0  0
  8 11  2  0  0  0  0
  9 13  1  0  0  0  0
  9 14  1  0  0  0  0
  9 15  1  0  0  0  0
 10 16  1  0  0  0  0
 10 17  1  0  0  0  0
 10 18  1  0  0  0  0
 19 20  1  0  0  0  0
 20 21  4  0  0  0  0
 20 25  4  0  0  0  0
 21 22  4  0  0  0  0
 21 26  1  0  0  0  0
 22 23  4  0  0  0  0
 22 27  1  0  0  0  0
 23 24  4  0  0  0  0
 23 28  1  0  0  0  0
 24 25  4  0  0  0  0
 24 29  1  0  0  0  0
 25 30  1  0  0  0  0
 26 31  1  0  0  0  0
 26 32  1  0  0  0  0
M  END
> <BCLConfClusterSize>
1

> <ConfClashScore>
0 

> <ConfOneFourInteractionScore>
-0.976093 

> <ConfScore>
0.0720814 

> <ConfScorePBest>
0.00373261 

> <ConfTolerance>
0.368417 

> <RosettaParamsInstructions>
M  ROOT 3
M  POLY_N_BB 3
M  POLY_CA_BB 4
M  POLY_C_BB 2
M  POLY_O_BB 5
M  POLY_IGNORE 9 10 11 12 13 14 15 16 17 18 
M  POLY_UPPER 6
M  POLY_LOWER 8
M  POLY_CHG 0
M  POLY_PROPERTIES ALPHA_AA L_AA PROTEIN AROMATIC POLYMER 
M  END

$$$$



 32 32  0  0  0  0  0  0  0  0999 V2000
   -0.7317    3.3574    3.2462 H   0  0  0  1  0  0  0  0  0  0  0  0
   -2.4910    2.2226    3.5671 C   0  0  0  1  0  0  0  0  0  0  0  0
   -0.3307    1.3324    3.0648 N   0  0  0  1  0  0  0  0  0  0  0  0
   -1.1885    2.4841    2.8294 C   0  0  0  1  0  0  0  0  0  0  0  0
   -2.9155    1.0769    3.7111 O   0  0  0  1  0  0  0  0  0  0  0  0
   -3.1592    3.2725    4.0532 N   0  0  0  1  0  0  0  0  0  0  0  0
   -0.0949    0.7382    2.3220 H   0  0  0  1  0  0  0  0  0  0  0  0
    0.1381    1.0821    4.2968 C   0  0  0  1  0  0  0  0  0  0  0  0
   -4.3922    3.1256    4.8123 C   0  0  0  1  0  0  0  0  0  0  0  0
    0.7993   -0.2689    4.4882 C   0  0  0  1  0  0  0  0  0  0  0  0
    0.0466    1.8838    5.2228 O   0  0  0  1  0  0  0  0  0  0  0  0
   -2.8069    4.1728    3.8931 H   0  0  0  1  0  0  0  0  0  0  0  0
   -4.2699    3.5641    5.7806 H   0  0  0  1  0  0  0  0  0  0  0  0
   -4.6237    2.0863    4.9184 H   0  0  0  1  0  0  0  0  0  0  0  0
   -5.1894    3.6182    4.2960 H   0  0  0  1  0  0  0  0  0  0  0  0
    0.4123   -0.9610    3.7697 H   0  0  0  1  0  0  0  0  0  0  0  0
    0.5958   -0.6287    5.4752 H   0  0  0  1  0  0  0  0  0  0  0  0
    1.8564   -0.1705    4.3549 H   0  0  0  1  0  0  0  0  0  0  0  0
   -4.1397    3.3020    1.6037 F   0  0  0  1  0  0  0  0  0  0  0  0
   -3.3318    4.3116    1.2268 C   0  0  0  1  0  0  0  0  0  0  0  0
   -1.9715    4.0913    1.0765 C   0  0  0  1  0  0  0  0  0  0  0  0
   -1.1417    5.1287    0.6949 C   0  0  0  1  0  0  0  0  0  0  0  0
   -1.6704    6.3879    0.4572 C   0  0  0  1  0  0  0  0  0  0  0  0
   -3.0268    6.6072    0.6071 C   0  0  0  1  0  0  0  0  0  0  0  0
   -3.8591    5.5669    0.9899 C   0  0  0  1  0  0  0  0  0  0  0  0
   -1.3962    2.7179    1.3298 C   0  0  0  1  0  0  0  0  0  0  0  0
   -0.1205    4.9645    0.5860 H   0  0  0  1  0  0  0  0  0  0  0  0
   -1.0466    7.1674    0.1661 H   0  0  0  1  0  0  0  0  0  0  0  0
   -3.4230    7.5528    0.4327 H   0  0  0  1  0  0  0  0  0  0  0  0
   -4.8803    5.7310    1.0988 H   0  0  0  1  0  0  0  0  0  0  0  0
   -2.0707    1.9794    0.9497 H   0  0  0  1  0  0  0  0  0  0  0  0
   -0.4549    2.6339    0.8279 H   0  0  0  1  0  0  0  0  0  0  0  0
  1  4  1  0  0  0  0
  2  4  1  0  0  0  0
  2  5  2  0  0  0  0
  2  6  1  0  0  0  0
  3  4  1  0  0  0  0
  3  7  1  0  0  0  0
  3  8  1  0  0  0  0
  4 26  1  0  0  0  0
  6  9  1  0  0  0  0
  6 12  1  0  0  0  0
  8 10  1  0  0  0  0
  8 11  2  0  0  0  0
  9 13  1  0  0  0  0
  9 14  1  0  0  0  0
  9 15  1  0  0  0  0
 10 16  1  0  0  0  0
 10 17  1  0  0  0  0
 10 18  1  0  0  0  0
 19 20  1  0  0  0  0
 20 21  4  0  0  0  0
 20 25  4  0  0  0  0
 21 22  4  0  0  0  0
 21 26  1  0  0  0  0
 22 23  4  0  0  0  0
 22 27  1  0  0  0  0
 23 24  4  0  0  0  0
 23 28  1  0  0  0  0
 24 25  4  0  0  0  0
 24 29  1  0  0  0  0
 25 30  1  0  0  0  0
 26 31  1  0  0  0  0
 26 32  1  0  0  0  0
M  END
> <BCLConfClusterSize>
1

> <ConfClashScore>
0 

> <ConfOneFourInteractionScore>
-0.985807 

> <ConfScore>
0.0741436 

> <ConfScorePBest>
0.00370413 

> <ConfTolerance>
0.67894 

> <RosettaParamsInstructions>
M  ROOT 3
M  POLY_N_BB 3
M  POLY_CA_BB 4
M  POLY_C_BB 2
M  POLY_O_BB 5
M  POLY_IGNORE 9 10 11 12 13 14 15 16 17 18 
M  POLY_UPPER 6
M  POLY_LOWER 8
M  POLY_CHG 0
M  POLY_PROPERTIES ALPHA_AA L_AA PROTEIN AROMATIC POLYMER 
M  END

$$$$



 32 32  0  0  0  0  0  0  0  0999 V2000
   -1.3880    2.1887   -0.7249 H   0  0  0  1  0  0  0  0  0  0  0  0
   -0.8061    0.4906    0.4102 C   0  0  0  1  0  0  0  0  0  0  0  0
   -3.0778    1.3783    0.1688 N   0  0  0  1  0  0  0  0  0  0  0  0
   -1.6658    1.7294    0.2007 C   0  0  0  1  0  0  0  0  0  0  0  0
    0.2811    0.5600    0.9594 O   0  0  0  1  0  0  0  0  0  0  0  0
   -1.3227   -0.6617   -0.0451 N   0  0  0  1  0  0  0  0  0  0  0  0
   -3.5870    1.5403   -0.6526 H   0  0  0  1  0  0  0  0  0  0  0  0
   -3.7276    0.8225    1.2604 C   0  0  0  1  0  0  0  0  0  0  0  0
   -0.5270   -1.8799   -0.0194 C   0  0  0  1  0  0  0  0  0  0  0  0
   -5.1988    0.5309    1.1639 C   0  0  0  1  0  0  0  0  0  0  0  0
   -3.0814    0.5881    2.2653 O   0  0  0  1  0  0  0  0  0  0  0  0
   -2.2376   -0.6826   -0.3957 H   0  0  0  1  0  0  0  0  0  0  0  0
   -0.1799   -2.0588    0.9768 H   0  0  0  1  0  0  0  0  0  0  0  0
    0.3117   -1.7717   -0.6749 H   0  0  0  1  0  0  0  0  0  0  0  0
   -1.1277   -2.7048   -0.3411 H   0  0  0  1  0  0  0  0  0  0  0  0
   -5.3499   -0.3563    0.5852 H   0  0  0  1  0  0  0  0  0  0  0  0
   -5.6949    1.3531    0.6919 H   0  0  0  1  0  0  0  0  0  0  0  0
   -5.5991    0.3884    2.1459 H   0  0  0  1  0  0  0  0  0  0  0  0
   -4.1392    3.2984    1.5955 F   0  0  0  1  0  0  0  0  0  0  0  0
   -3.3303    4.3096    1.2252 C   0  0  0  1  0  0  0  0  0  0  0  0
   -1.9735    4.0909    1.0783 C   0  0  0  1  0  0  0  0  0  0  0  0
   -1.1416    5.1304    0.6920 C   0  0  0  1  0  0  0  0  0  0  0  0
   -1.6685    6.3867    0.4589 C   0  0  0  1  0  0  0  0  0  0  0  0
   -3.0292    6.6061    0.6062 C   0  0  0  1  0  0  0  0  0  0  0  0
   -3.8584    5.5697    0.9914 C   0  0  0  1  0  0  0  0  0  0  0  0
   -1.3970    2.7193    1.3387 C   0  0  0  1  0  0  0  0  0  0  0  0
   -0.1213    4.9649    0.5776 H   0  0  0  1  0  0  0  0  0  0  0  0
   -1.0439    7.1676    0.1730 H   0  0  0  1  0  0  0  0  0  0  0  0
   -3.4261    7.5505    0.4269 H   0  0  0  1  0  0  0  0  0  0  0  0
   -4.8787    5.7352    1.1058 H   0  0  0  1  0  0  0  0  0  0  0  0
   -0.3387    2.8131    1.4656 H   0  0  0  1  0  0  0  0  0  0  0  0
   -1.8315    2.3322    2.2366 H   0  0  0  1  0  0  0  0  0  0  0  0
  1  4  1  0  0  0  0
  2  4  1  0  0  0  0
  2  5  2  0  0  0  0
  2  6  1  0  0  0  0
  3  4  1  0  0  0  0
  3  7  1  0  0  0  0
  3  8  1  0  0  0  0
  4 26  1  0  0  0  0
  6  9  1  0  0  0  0
  6 12  1  0  0  0  0
  8 10  1  0  0  0  0
  8 11  2  0  0  0  0
  9 13  1  0  0  0  0
  9 14  1  0  0  0  0
  9 15  1  0  0  0  0
 10 16  1  0  0  0  0
 10 17  1  0  0  0  0
 10 18  1  0  0  0  0
 19 20  1  0  0  0  0
 20 21  4  0  0  0  0
 20 25  4  0  0  0  0
 21 22  4  0  0  0  0
 21 26  1  0  0  0  0
 22 23  4  0  0  0  0
 22 27  1  0  0  0  0
 23 24  4  0  0  0  0
 23 28  1  0  0  0  0
 24 25  4  0  0  0  0
 24 29  1  0  0  0  0
 25 30  1  0  0  0  0
 26 31  1  0  0  0  0
 26 32  1  0  0  0  0
M  END
> <BCLConfClusterSize>
1

> <ConfClashScore>
0 

> <ConfOneFourInteractionScore>
-0.953096 

> <ConfScore>
0.0747795 

> <ConfScorePBest>
0.00367564 

> <ConfTolerance>
0.505096 

> <RosettaParamsInstructions>
M  ROOT 3
M  POLY_N_BB 3
M  POLY_CA_BB 4
M  POLY_C_BB 2
M  POLY_O_BB 5
M  POLY_IGNORE 9 10 11 12 13 14 15 16 17 18 
M  POLY_UPPER 6
M  POLY_LOWER 8
M  POLY_CHG 0
M  POLY_PROPERTIES ALPHA_AA L_AA PROTEIN AROMATIC POLYMER 
M  END

$$$$



 32 32  0  0  0  0  0  0  0  0999 V2000
   -2.5347    2.0805   -0.3360 H   0  0  0  1  0  0  0  0  0  0  0  0
   -1.0154    0.6421    0.0106 C   0  0  0  1  0  0  0  0  0  0  0  0
   -3.0359    0.8801    1.2829 N   0  0  0  1  0  0  0  0  0  0  0  0
   -2.0570    1.6271    0.5073 C   0  0  0  1  0  0  0  0  0  0  0  0
   -0.2702    0.9203   -0.9252 O   0  0  0  1  0  0  0  0  0  0  0  0
   -0.9696   -0.5279    0.6540 N   0  0  0  1  0  0  0  0  0  0  0  0
   -3.2067    1.1457    2.2107 H   0  0  0  1  0  0  0  0  0  0  0  0
   -3.7099   -0.1552    0.7742 C   0  0  0  1  0  0  0  0  0  0  0  0
   -0.1354   -1.6314    0.2022 C   0  0  0  1  0  0  0  0  0  0  0  0
   -4.8078   -0.7224    1.6530 C   0  0  0  1  0  0  0  0  0  0  0  0
   -3.4695   -0.6315   -0.3344 O   0  0  0  1  0  0  0  0  0  0  0  0
   -1.5168   -0.6472    1.4582 H   0  0  0  1  0  0  0  0  0  0  0  0
   -0.6100   -2.5598    0.4427 H   0  0  0  1  0  0  0  0  0  0  0  0
    0.8163   -1.5812    0.6886 H   0  0  0  1  0  0  0  0  0  0  0  0
    0.0009   -1.5648   -0.8570 H   0  0  0  1  0  0  0  0  0  0  0  0
   -4.3900   -1.0424    2.5846 H   0  0  0  1  0  0  0  0  0  0  0  0
   -5.2628   -1.5567    1.1611 H   0  0  0  1  0  0  0  0  0  0  0  0
   -5.5452    0.0316    1.8334 H   0  0  0  1  0  0  0  0  0  0  0  0
   -4.1392    3.2983    1.5955 F   0  0  0  1  0  0  0  0  0  0  0  0
   -3.3303    4.3095    1.2252 C   0  0  0  1  0  0  0  0  0  0  0  0
   -1.9735    4.0910    1.0783 C   0  0  0  1  0  0  0  0  0  0  0  0
   -1.1417    5.1304    0.6920 C   0  0  0  1  0  0  0  0  0  0  0  0
   -1.6684    6.3867    0.4589 C   0  0  0  1  0  0  0  0  0  0  0  0
   -3.0292    6.6061    0.6062 C   0  0  0  1  0  0  0  0  0  0  0  0
   -3.8585    5.5697    0.9914 C   0  0  0  1  0  0  0  0  0  0  0  0
   -1.3970    2.7194    1.3387 C   0  0  0  1  0  0  0  0  0  0  0  0
   -0.1213    4.9649    0.5776 H   0  0  0  1  0  0  0  0  0  0  0  0
   -1.0438    7.1675    0.1730 H   0  0  0  1  0  0  0  0  0  0  0  0
   -3.4261    7.5506    0.4269 H   0  0  0  1  0  0  0  0  0  0  0  0
   -4.8788    5.7352    1.1058 H   0  0  0  1  0  0  0  0  0  0  0  0
   -0.3525    2.7393    1.1071 H   0  0  0  1  0  0  0  0  0  0  0  0
   -1.5288    2.4856    2.3745 H   0  0  0  1  0  0  0  0  0  0  0  0
  1  4  1  0  0  0  0
  2  4  1  0  0  0  0
  2  5  2  0  0  0  0
  2  6  1  0  0  0  0
  3  4  1  0  0  0  0
  3  7  1  0  0  0  0
  3  8  1  0  0  0  0
  4 26  1  0  0  0  0
  6  9  1  0  0  0  0
  6 12  1  0  0  0  0
  8 10  1  0  0  0  0
  8 11  2  0  0  0  0
  9 13  1  0  0  0  0
  9 14  1  0  0  0  0
  9 15  1  0  0  0  0
 10 16  1  0  0  0  0
 10 17  1  0  0  0  0
 10 18  1  0  0  0  0
 19 20  1  0  0  0  0
 20 21  4  0  0  0  0
 20 25  4  0  0  0  0
 21 22  4  0  0  0  0
 21 26  1  0  0  0  0
 22 23  4  0  0  0  0
 22 27  1  0  0  0  0
 23 24  4  0  0  0  0
 23 28  1  0  0  0  0
 24 25  4  0  0  0  0
 24 29  1  0  0  0  0
 25 30  1  0  0  0  0
 26 31  1  0  0  0  0
 26 32  1  0  0  0  0
M  END
> <BCLConfClusterSize>
1

> <ConfClashScore>
0 

> <ConfOneFourInteractionScore>
-0.948834 

> <ConfScore>
0.0776006 

> <ConfScorePBest>
0.00364716 

> <ConfTolerance>
0.742429 

> <RosettaParamsInstructions>
M  ROOT 3
M  POLY_N_BB 3
M  POLY_CA_BB 4
M  POLY_C_BB 2
M  POLY_O_BB 5
M  POLY_IGNORE 9 10 11 12 13 14 15 16 17 18 
M  POLY_UPPER 6
M  POLY_LOWER 8
M  POLY_CHG 0
M  POLY_PROPERTIES ALPHA_AA L_AA PROTEIN AROMATIC POLYMER 
M  END

$$$$



 32 32  0  0  0  0  0  0  0  0999 V2000
    0.5584    3.3578    1.8412 H   0  0  0  1  0  0  0  0  0  0  0  0
   -0.6118    3.3664    3.6031 C   0  0  0  1  0  0  0  0  0  0  0  0
    0.3326    1.3878    2.4200 N   0  0  0  1  0  0  0  0  0  0  0  0
   -0.1952    2.7366    2.2784 C   0  0  0  1  0  0  0  0  0  0  0  0
   -1.5307    2.9072    4.2612 O   0  0  0  1  0  0  0  0  0  0  0  0
    0.0903    4.4379    3.9826 N   0  0  0  1  0  0  0  0  0  0  0  0
   -0.0441    0.6721    1.8666 H   0  0  0  1  0  0  0  0  0  0  0  0
    1.3128    1.0914    3.2781 C   0  0  0  1  0  0  0  0  0  0  0  0
   -0.2361    5.1968    5.1807 C   0  0  0  1  0  0  0  0  0  0  0  0
    1.8404   -0.3294    3.2319 C   0  0  0  1  0  0  0  0  0  0  0  0
    1.8235    1.9338    4.0116 O   0  0  0  1  0  0  0  0  0  0  0  0
    0.8517    4.7226    3.4351 H   0  0  0  1  0  0  0  0  0  0  0  0
   -1.2653    5.0448    5.4304 H   0  0  0  1  0  0  0  0  0  0  0  0
   -0.0627    6.2374    5.0017 H   0  0  0  1  0  0  0  0  0  0  0  0
    0.3798    4.8662    5.9908 H   0  0  0  1  0  0  0  0  0  0  0  0
    2.8858   -0.3298    3.4600 H   0  0  0  1  0  0  0  0  0  0  0  0
    1.6890   -0.7341    2.2531 H   0  0  0  1  0  0  0  0  0  0  0  0
    1.3187   -0.9268    3.9501 H   0  0  0  1  0  0  0  0  0  0  0  0
   -4.1397    3.3020    1.6037 F   0  0  0  1  0  0  0  0  0  0  0  0
   -3.3318    4.3115    1.2268 C   0  0  0  1  0  0  0  0  0  0  0  0
   -1.9715    4.0914    1.0765 C   0  0  0  1  0  0  0  0  0  0  0  0
   -1.1417    5.1287    0.6949 C   0  0  0  1  0  0  0  0  0  0  0  0
   -1.6704    6.3879    0.4572 C   0  0  0  1  0  0  0  0  0  0  0  0
   -3.0268    6.6072    0.6071 C   0  0  0  1  0  0  0  0  0  0  0  0
   -3.8592    5.5669    0.9899 C   0  0  0  1  0  0  0  0  0  0  0  0
   -1.3961    2.7179    1.3298 C   0  0  0  1  0  0  0  0  0  0  0  0
   -0.1206    4.9645    0.5860 H   0  0  0  1  0  0  0  0  0  0  0  0
   -1.0466    7.1674    0.1662 H   0  0  0  1  0  0  0  0  0  0  0  0
   -3.4229    7.5529    0.4327 H   0  0  0  1  0  0  0  0  0  0  0  0
   -4.8803    5.7311    1.0988 H   0  0  0  1  0  0  0  0  0  0  0  0
   -2.1593    2.1027    1.7586 H   0  0  0  1  0  0  0  0  0  0  0  0
   -1.0849    2.3013    0.3946 H   0  0  0  1  0  0  0  0  0  0  0  0
  1  4  1  0  0  0  0
  2  4  1  0  0  0  0
  2  5  2  0  0  0  0
  2  6  1  0  0  0  0
  3  4  1  0  0  0  0
  3  7  1  0  0  0  0
  3  8  1  0  0  0  0
  4 26  1  0  0  0  0
  6  9  1  0  0  0  0
  6 12  1  0  0  0  0
  8 10  1  0  0  0  0
  8 11  2  0  0  0  0
  9 13  1  0  0  0  0
  9 14  1  0  0  0  0
  9 15  1  0  0  0  0
 10 16  1  0  0  0  0
 10 17  1  0  0  0  0
 10 18  1  0  0  0  0
 19 20  1  0  0  0  0
 20 21  4  0  0  0  0
 20 25  4  0  0  0  0
 21 22  4  0  0  0  0
 21 26  1  0  0  0  0
 22 23  4  0  0  0  0
 22 27  1  0  0  0  0
 23 24  4  0  0  0  0
 23 28  1  0  0  0  0
 24 25  4  0  0  0  0
 24 29  1  0  0  0  0
 25 30  1  0  0  0  0
 26 31  1  0  0  0  0
 26 32  1  0  0  0  0
M  END
> <BCLConfClusterSize>
1

> <ConfClashScore>
0 

> <ConfOneFourInteractionScore>
-0.979134 

> <ConfScore>
0.0803455 

> <ConfScorePBest>
0.00361868 

> <ConfTolerance>
0.732735 

> <RosettaParamsInstructions>
M  ROOT 3
M  POLY_N_BB 3
M  POLY_CA_BB 4
M  POLY_C_BB 2
M  POLY_O_BB 5
M  POLY_IGNORE 9 10 11 12 13 14 15 16 17 18 
M  POLY_UPPER 6
M  POLY_LOWER 8
M  POLY_CHG 0
M  POLY_PROPERTIES ALPHA_AA L_AA PROTEIN AROMATIC POLYMER 
M  END

$$$$



 32 32  0  0  0  0  0  0  0  0999 V2000
   -1.5982    2.9257    3.4504 H   0  0  0  1  0  0  0  0  0  0  0  0
   -0.6152    1.0794    3.0681 C   0  0  0  1  0  0  0  0  0  0  0  0
    0.3910    3.2617    2.9563 N   0  0  0  1  0  0  0  0  0  0  0  0
   -0.8655    2.5528    2.7656 C   0  0  0  1  0  0  0  0  0  0  0  0
   -1.1121    0.2440    2.3138 O   0  0  0  1  0  0  0  0  0  0  0  0
    0.1290    0.7719    4.1342 N   0  0  0  1  0  0  0  0  0  0  0  0
    1.1496    3.0446    2.3751 H   0  0  0  1  0  0  0  0  0  0  0  0
    0.5523    4.2338    3.9318 C   0  0  0  1  0  0  0  0  0  0  0  0
    0.2906   -0.6174    4.5363 C   0  0  0  1  0  0  0  0  0  0  0  0
    1.9251    4.7878    4.1911 C   0  0  0  1  0  0  0  0  0  0  0  0
   -0.4285    4.6079    4.5487 O   0  0  0  1  0  0  0  0  0  0  0  0
    0.5670    1.4833    4.6464 H   0  0  0  1  0  0  0  0  0  0  0  0
    0.3891   -0.6721    5.6004 H   0  0  0  1  0  0  0  0  0  0  0  0
    1.1677   -1.0220    4.0759 H   0  0  0  1  0  0  0  0  0  0  0  0
   -0.5661   -1.1796    4.2283 H   0  0  0  1  0  0  0  0  0  0  0  0
    2.5213    4.6927    3.3077 H   0  0  0  1  0  0  0  0  0  0  0  0
    2.3836    4.2442    4.9906 H   0  0  0  1  0  0  0  0  0  0  0  0
    1.8479    5.8206    4.4595 H   0  0  0  1  0  0  0  0  0  0  0  0
   -4.1391    3.2984    1.5955 F   0  0  0  1  0  0  0  0  0  0  0  0
   -3.3302    4.3096    1.2252 C   0  0  0  1  0  0  0  0  0  0  0  0
   -1.9734    4.0909    1.0783 C   0  0  0  1  0  0  0  0  0  0  0  0
   -1.1418    5.1304    0.6920 C   0  0  0  1  0  0  0  0  0  0  0  0
   -1.6684    6.3868    0.4589 C   0  0  0  1  0  0  0  0  0  0  0  0
   -3.0291    6.6060    0.6062 C   0  0  0  1  0  0  0  0  0  0  0  0
   -3.8586    5.5697    0.9914 C   0  0  0  1  0  0  0  0  0  0  0  0
   -1.3969    2.7193    1.3387 C   0  0  0  1  0  0  0  0  0  0  0  0
   -0.1214    4.9649    0.5776 H   0  0  0  1  0  0  0  0  0  0  0  0
   -1.0437    7.1676    0.1729 H   0  0  0  1  0  0  0  0  0  0  0  0
   -3.4260    7.5505    0.4269 H   0  0  0  1  0  0  0  0  0  0  0  0
   -4.8789    5.7352    1.1058 H   0  0  0  1  0  0  0  0  0  0  0  0
   -2.1631    1.9908    1.1735 H   0  0  0  1  0  0  0  0  0  0  0  0
   -0.5919    2.5525    0.6538 H   0  0  0  1  0  0  0  0  0  0  0  0
  1  4  1  0  0  0  0
  2  4  1  0  0  0  0
  2  5  2  0  0  0  0
  2  6  1  0  0  0  0
  3  4  1  0  0  0  0
  3  7  1  0  0  0  0
  3  8  1  0  0  0  0
  4 26  1  0  0  0  0
  6  9  1  0  0  0  0
  6 12  1  0  0  0  0
  8 10  1  0  0  0  0
  8 11  2  0  0  0  0
  9 13  1  0  0  0  0
  9 14  1  0  0  0  0
  9 15  1  0  0  0  0
 10 16  1  0  0  0  0
 10 17  1  0  0  0  0
 10 18  1  0  0  0  0
 19 20  1  0  0  0  0
 20 21  4  0  0  0  0
 20 25  4  0  0  0  0
 21 22  4  0  0  0  0
 21 26  1  0  0  0  0
 22 23  4  0  0  0  0
 22 27  1  0  0  0  0
 23 24  4  0  0  0  0
 23 28  1  0  0  0  0
 24 25  4  0  0  0  0
 24 29  1  0  0  0  0
 25 30  1  0  0  0  0
 26 31  1  0  0  0  0
 26 32  1  0  0  0  0
M  END
> <BCLConfClusterSize>
1

> <ConfClashScore>
0 

> <ConfOneFourInteractionScore>
-0.956733 

> <ConfScore>
0.0850333 

> <ConfScorePBest>
0.0035902 

> <ConfTolerance>
0.523866 

> <RosettaParamsInstructions>
M  ROOT 3
M  POLY_N_BB 3
M  POLY_CA_BB 4
M  POLY_C_BB 2
M  POLY_O_BB 5
M  POLY_IGNORE 9 10 11 12 13 14 15 16 17 18 
M  POLY_UPPER 6
M  POLY_LOWER 8
M  POLY_CHG 0
M  POLY_PROPERTIES ALPHA_AA L_AA PROTEIN AROMATIC POLYMER 
M  END

$$$$



 32 32  0  0  0  0  0  0  0  0999 V2000
   -0.5564    1.5535    2.8999 H   0  0  0  1  0  0  0  0  0  0  0  0
   -0.3311    3.5829    3.4353 C   0  0  0  1  0  0  0  0  0  0  0  0
   -2.3818    2.2736    3.5485 N   0  0  0  1  0  0  0  0  0  0  0  0
   -1.1338    2.4512    2.8237 C   0  0  0  1  0  0  0  0  0  0  0  0
   -0.8766    4.4771    4.0767 O   0  0  0  1  0  0  0  0  0  0  0  0
    0.9860    3.5366    3.2292 N   0  0  0  1  0  0  0  0  0  0  0  0
   -3.2373    2.3889    3.0845 H   0  0  0  1  0  0  0  0  0  0  0  0
   -2.3646    1.9511    4.8565 C   0  0  0  1  0  0  0  0  0  0  0  0
    1.8537    4.5452    3.8188 C   0  0  0  1  0  0  0  0  0  0  0  0
   -3.7277    1.8162    5.5228 C   0  0  0  1  0  0  0  0  0  0  0  0
   -1.3244    1.7729    5.4888 O   0  0  0  1  0  0  0  0  0  0  0  0
    1.3700    2.8219    2.6796 H   0  0  0  1  0  0  0  0  0  0  0  0
    2.6819    4.7292    3.1668 H   0  0  0  1  0  0  0  0  0  0  0  0
    2.2147    4.1965    4.7638 H   0  0  0  1  0  0  0  0  0  0  0  0
    1.3026    5.4515    3.9594 H   0  0  0  1  0  0  0  0  0  0  0  0
   -3.8576    2.6057    6.2334 H   0  0  0  1  0  0  0  0  0  0  0  0
   -3.7879    0.8726    6.0236 H   0  0  0  1  0  0  0  0  0  0  0  0
   -4.4952    1.8758    4.7797 H   0  0  0  1  0  0  0  0  0  0  0  0
   -4.1391    3.2983    1.5955 F   0  0  0  1  0  0  0  0  0  0  0  0
   -3.3303    4.3096    1.2252 C   0  0  0  1  0  0  0  0  0  0  0  0
   -1.9735    4.0910    1.0783 C   0  0  0  1  0  0  0  0  0  0  0  0
   -1.1416    5.1304    0.6920 C   0  0  0  1  0  0  0  0  0  0  0  0
   -1.6684    6.3867    0.4589 C   0  0  0  1  0  0  0  0  0  0  0  0
   -3.0292    6.6062    0.6062 C   0  0  0  1  0  0  0  0  0  0  0  0
   -3.8584    5.5697    0.9914 C   0  0  0  1  0  0  0  0  0  0  0  0
   -1.3971    2.7194    1.3387 C   0  0  0  1  0  0  0  0  0  0  0  0
   -0.1213    4.9648    0.5776 H   0  0  0  1  0  0  0  0  0  0  0  0
   -1.0438    7.1676    0.1730 H   0  0  0  1  0  0  0  0  0  0  0  0
   -3.4261    7.5506    0.4269 H   0  0  0  1  0  0  0  0  0  0  0  0
   -4.8788    5.7352    1.1058 H   0  0  0  1  0  0  0  0  0  0  0  0
   -2.0870    1.9857    0.9772 H   0  0  0  1  0  0  0  0  0  0  0  0
   -0.4722    2.6322    0.8077 H   0  0  0  1  0  0  0  0  0  0  0  0
  1  4  1  0  0  0  0
  2  4  1  0  0  0  0
  2  5  2  0  0  0  0
  2  6  1  0  0  0  0
  3  4  1  0  0  0  0
  3  7  1  0  0  0  0
  3  8  1  0  0  0  0
  4 26  1  0  0  0  0
  6  9  1  0  0  0  0
  6 12  1  0  0  0  0
  8 10  1  0  0  0  0
  8 11  2  0  0  0  0
  9 13  1  0  0  0  0
  9 14  1  0  0  0  0
  9 15  1  0  0  0  0
 10 16  1  0  0  0  0
 10 17  1  0  0  0  0
 10 18  1  0  0  0  0
 19 20  1  0  0  0  0
 20 21  4  0  0  0  0
 20 25  4  0  0  0  0
 21 22  4  0  0  0  0
 21 26  1  0  0  0  0
 22 23  4  0  0  0  0
 22 27  1  0  0  0  0
 23 24  4  0  0  0  0
 23 28  1  0  0  0  0
 24 25  4  0  0  0  0
 24 29  1  0  0  0  0
 25 30  1  0  0  0  0
 26 31  1  0  0  0  0
 26 32  1  0  0  0  0
M  END
> <BCLConfClusterSize>
1

> <ConfClashScore>
0 

> <ConfOneFourInteractionScore>
-0.982563 

> <ConfScore>
0.093687 

> <ConfScorePBest>
0.00356172 

> <ConfTolerance>
0.601163 

> <RosettaParamsInstructions>
M  ROOT 3
M  POLY_N_BB 3
M  POLY_CA_BB 4
M  POLY_C_BB 2
M  POLY_O_BB 5
M  POLY_IGNORE 9 10 11 12 13 14 15 16 17 18 
M  POLY_UPPER 6
M  POLY_LOWER 8
M  POLY_CHG 0
M  POLY_PROPERTIES ALPHA_AA L_AA PROTEIN AROMATIC POLYMER 
M  END

$$$$



 32 32  0  0  0  0  0  0  0  0999 V2000
   -0.4586    2.6165   -0.5219 H   0  0  0  1  0  0  0  0  0  0  0  0
   -0.2590    0.6880    0.2325 C   0  0  0  1  0  0  0  0  0  0  0  0
   -2.2835    1.7263   -0.7747 N   0  0  0  1  0  0  0  0  0  0  0  0
   -1.0800    1.9579    0.0483 C   0  0  0  1  0  0  0  0  0  0  0  0
    0.3634    0.4764    1.2699 O   0  0  0  1  0  0  0  0  0  0  0  0
   -0.2659   -0.1622   -0.7981 N   0  0  0  1  0  0  0  0  0  0  0  0
   -2.9768    1.1206   -0.4388 H   0  0  0  1  0  0  0  0  0  0  0  0
   -2.4604    2.3136   -1.9616 C   0  0  0  1  0  0  0  0  0  0  0  0
    0.3765   -1.4680   -0.8052 C   0  0  0  1  0  0  0  0  0  0  0  0
   -3.8424    2.1817   -2.5603 C   0  0  0  1  0  0  0  0  0  0  0  0
   -1.5683    2.9265   -2.5448 O   0  0  0  1  0  0  0  0  0  0  0  0
   -0.7391    0.1144   -1.6105 H   0  0  0  1  0  0  0  0  0  0  0  0
    1.4329   -1.3458   -0.9235 H   0  0  0  1  0  0  0  0  0  0  0  0
   -0.0080   -2.0500   -1.6166 H   0  0  0  1  0  0  0  0  0  0  0  0
    0.1769   -1.9684    0.1193 H   0  0  0  1  0  0  0  0  0  0  0  0
   -4.5211    2.8221   -2.0366 H   0  0  0  1  0  0  0  0  0  0  0  0
   -4.1722    1.1673   -2.4756 H   0  0  0  1  0  0  0  0  0  0  0  0
   -3.8121    2.4624   -3.5924 H   0  0  0  1  0  0  0  0  0  0  0  0
   -4.1397    3.3020    1.6037 F   0  0  0  1  0  0  0  0  0  0  0  0
   -3.3318    4.3115    1.2268 C   0  0  0  1  0  0  0  0  0  0  0  0
   -1.9715    4.0913    1.0765 C   0  0  0  1  0  0  0  0  0  0  0  0
   -1.1417    5.1287    0.6949 C   0  0  0  1  0  0  0  0  0  0  0  0
   -1.6705    6.3878    0.4572 C   0  0  0  1  0  0  0  0  0  0  0  0
   -3.0268    6.6072    0.6071 C   0  0  0  1  0  0  0  0  0  0  0  0
   -3.8591    5.5669    0.9899 C   0  0  0  1  0  0  0  0  0  0  0  0
   -1.3961    2.7179    1.3298 C   0  0  0  1  0  0  0  0  0  0  0  0
   -0.1205    4.9646    0.5860 H   0  0  0  1  0  0  0  0  0  0  0  0
   -1.0466    7.1674    0.1662 H   0  0  0  1  0  0  0  0  0  0  0  0
   -3.4229    7.5528    0.4327 H   0  0  0  1  0  0  0  0  0  0  0  0
   -4.8803    5.7311    1.0987 H   0  0  0  1  0  0  0  0  0  0  0  0
   -0.4930    2.8257    1.8934 H   0  0  0  1  0  0  0  0  0  0  0  0
   -2.1050    2.1508    1.8960 H   0  0  0  1  0  0  0  0  0  0  0  0
  1  4  1  0  0  0  0
  2  4  1  0  0  0  0
  2  5  2  0  0  0  0
  2  6  1  0  0  0  0
  3  4  1  0  0  0  0
  3  7  1  0  0  0  0
  3  8  1  0  0  0  0
  4 26  1  0  0  0  0
  6  9  1  0  0  0  0
  6 12  1  0  0  0  0
  8 10  1  0  0  0  0
  8 11  2  0  0  0  0
  9 13  1  0  0  0  0
  9 14  1  0  0  0  0
  9 15  1  0  0  0  0
 10 16  1  0  0  0  0
 10 17  1  0  0  0  0
 10 18  1  0  0  0  0
 19 20  1  0  0  0  0
 20 21  4  0  0  0  0
 20 25  4  0  0  0  0
 21 22  4  0  0  0  0
 21 26  1  0  0  0  0
 22 23  4  0  0  0  0
 22 27  1  0  0  0  0
 23 24  4  0  0  0  0
 23 28  1  0  0  0  0
 24 25  4  0  0  0  0
 24 29  1  0  0  0  0
 25 30  1  0  0  0  0
 26 31  1  0  0  0  0
 26 32  1  0  0  0  0
M  END
> <BCLConfClusterSize>
1

> <ConfClashScore>
0 

> <ConfOneFourInteractionScore>
-0.960608 

> <ConfScore>
0.10203 

> <ConfScorePBest>
0.00353324 

> <ConfTolerance>
0.540526 

> <RosettaParamsInstructions>
M  ROOT 3
M  POLY_N_BB 3
M  POLY_CA_BB 4
M  POLY_C_BB 2
M  POLY_O_BB 5
M  POLY_IGNORE 9 10 11 12 13 14 15 16 17 18 
M  POLY_UPPER 6
M  POLY_LOWER 8
M  POLY_CHG 0
M  POLY_PROPERTIES ALPHA_AA L_AA PROTEIN AROMATIC POLYMER 
M  END

$$$$



 32 32  0  0  0  0  0  0  0  0999 V2000
   -0.2454    1.6513    2.7326 H   0  0  0  1  0  0  0  0  0  0  0  0
    0.8405    3.4123    2.3734 C   0  0  0  1  0  0  0  0  0  0  0  0
   -1.1932    3.1926    3.7353 N   0  0  0  1  0  0  0  0  0  0  0  0
   -0.4791    2.6793    2.5495 C   0  0  0  1  0  0  0  0  0  0  0  0
    1.0300    4.5232    2.8617 O   0  0  0  1  0  0  0  0  0  0  0  0
    1.7389    2.7351    1.6528 N   0  0  0  1  0  0  0  0  0  0  0  0
   -1.0672    4.1226    4.0174 H   0  0  0  1  0  0  0  0  0  0  0  0
   -2.0143    2.3884    4.4276 C   0  0  0  1  0  0  0  0  0  0  0  0
    3.0310    3.2994    1.2921 C   0  0  0  1  0  0  0  0  0  0  0  0
   -2.7908    3.0487    5.5503 C   0  0  0  1  0  0  0  0  0  0  0  0
   -2.1421    1.1918    4.1823 O   0  0  0  1  0  0  0  0  0  0  0  0
    1.5203    1.8268    1.3569 H   0  0  0  1  0  0  0  0  0  0  0  0
    3.5871    3.5150    2.1805 H   0  0  0  1  0  0  0  0  0  0  0  0
    2.8832    4.2017    0.7364 H   0  0  0  1  0  0  0  0  0  0  0  0
    3.5726    2.5963    0.6944 H   0  0  0  1  0  0  0  0  0  0  0  0
   -2.5287    4.0847    5.6046 H   0  0  0  1  0  0  0  0  0  0  0  0
   -2.5517    2.5715    6.4777 H   0  0  0  1  0  0  0  0  0  0  0  0
   -3.8397    2.9559    5.3608 H   0  0  0  1  0  0  0  0  0  0  0  0
   -4.1392    3.2984    1.5955 F   0  0  0  1  0  0  0  0  0  0  0  0
   -3.3303    4.3096    1.2252 C   0  0  0  1  0  0  0  0  0  0  0  0
   -1.9735    4.0909    1.0783 C   0  0  0  1  0  0  0  0  0  0  0  0
   -1.1416    5.1304    0.6920 C   0  0  0  1  0  0  0  0  0  0  0  0
   -1.6685    6.3867    0.4589 C   0  0  0  1  0  0  0  0  0  0  0  0
   -3.0292    6.6061    0.6062 C   0  0  0  1  0  0  0  0  0  0  0  0
   -3.8584    5.5697    0.9914 C   0  0  0  1  0  0  0  0  0  0  0  0
   -1.3970    2.7193    1.3387 C   0  0  0  1  0  0  0  0  0  0  0  0
   -0.1213    4.9649    0.5776 H   0  0  0  1  0  0  0  0  0  0  0  0
   -1.0439    7.1676    0.1730 H   0  0  0  1  0  0  0  0  0  0  0  0
   -3.4261    7.5505    0.4269 H   0  0  0  1  0  0  0  0  0  0  0  0
   -4.8787    5.7352    1.1058 H   0  0  0  1  0  0  0  0  0  0  0  0
   -2.2042    2.0358    1.5005 H   0  0  0  1  0  0  0  0  0  0  0  0
   -0.8388    2.4155    0.4779 H   0  0  0  1  0  0  0  0  0  0  0  0
  1  4  1  0  0  0  0
  2  4  1  0  0  0  0
  2  5  2  0  0  0  0
  2  6  1  0  0  0  0
  3  4  1  0  0  0  0
  3  7  1  0  0  0  0
  3  8  1  0  0  0  0
  4 26  1  0  0  0  0
  6  9  1  0  0  0  0
  6 12  1  0  0  0  0
  8 10  1  0  0  0  0
  8 11  2  0  0  0  0
  9 13  1  0  0  0  0
  9 14  1  0  0  0  0
  9 15  1  0  0  0  0
 10 16  1  0  0  0  0
 10 17  1  0  0  0  0
 10 18  1  0  0  0  0
 19 20  1  0  0  0  0
 20 21  4  0  0  0  0
 20 25  4  0  0  0  0
 21 22  4  0  0  0  0
 21 26  1  0  0  0  0
 22 23  4  0  0  0  0
 22 27  1  0  0  0  0
 23 24  4  0  0  0  0
 23 28  1  0  0  0  0
 24 25  4  0  0  0  0
 24 29  1  0  0  0  0
 25 30  1  0  0  0  0
 26 31  1  0  0  0  0
 26 32  1  0  0  0  0
M  END
> <BCLConfClusterSize>
1

> <ConfClashScore>
0 

> <ConfOneFourInteractionScore>
-0.980789 

> <ConfScore>
0.103633 

> <ConfScorePBest>
0.00350476 

> <ConfTolerance>
0.701943 

> <RosettaParamsInstructions>
M  ROOT 3
M  POLY_N_BB 3
M  POLY_CA_BB 4
M  POLY_C_BB 2
M  POLY_O_BB 5
M  POLY_IGNORE 9 10 11 12 13 14 15 16 17 18 
M  POLY_UPPER 6
M  POLY_LOWER 8
M  POLY_CHG 0
M  POLY_PROPERTIES ALPHA_AA L_AA PROTEIN AROMATIC POLYMER 
M  END

$$$$



 32 32  0  0  0  0  0  0  0  0999 V2000
    0.2556    3.6529    2.2642 H   0  0  0  1  0  0  0  0  0  0  0  0
   -0.8235    2.6254    3.7626 C   0  0  0  1  0  0  0  0  0  0  0  0
    0.6639    1.6328    2.1034 N   0  0  0  1  0  0  0  0  0  0  0  0
   -0.2671    2.7234    2.3519 C   0  0  0  1  0  0  0  0  0  0  0  0
   -1.0521    3.6383    4.4224 O   0  0  0  1  0  0  0  0  0  0  0  0
   -1.0561    1.4087    4.2629 N   0  0  0  1  0  0  0  0  0  0  0  0
    0.5458    1.1150    1.2797 H   0  0  0  1  0  0  0  0  0  0  0  0
    1.6674    1.2841    2.9136 C   0  0  0  1  0  0  0  0  0  0  0  0
   -1.4892    1.2029    5.6370 C   0  0  0  1  0  0  0  0  0  0  0  0
    2.5734    0.1807    2.4029 C   0  0  0  1  0  0  0  0  0  0  0  0
    1.8596    1.8123    4.0056 O   0  0  0  1  0  0  0  0  0  0  0  0
   -0.9307    0.6275    3.6846 H   0  0  0  1  0  0  0  0  0  0  0  0
   -1.5350    2.1451    6.1419 H   0  0  0  1  0  0  0  0  0  0  0  0
   -0.7929    0.5634    6.1382 H   0  0  0  1  0  0  0  0  0  0  0  0
   -2.4581    0.7489    5.6411 H   0  0  0  1  0  0  0  0  0  0  0  0
    2.2467   -0.7598    2.7950 H   0  0  0  1  0  0  0  0  0  0  0  0
    3.5779    0.3692    2.7195 H   0  0  0  1  0  0  0  0  0  0  0  0
    2.5348    0.1539    1.3339 H   0  0  0  1  0  0  0  0  0  0  0  0
   -4.1398    3.3019    1.6037 F   0  0  0  1  0  0  0  0  0  0  0  0
   -3.3319    4.3114    1.2268 C   0  0  0  1  0  0  0  0  0  0  0  0
   -1.9716    4.0914    1.0765 C   0  0  0  1  0  0  0  0  0  0  0  0
   -1.1416    5.1287    0.6948 C   0  0  0  1  0  0  0  0  0  0  0  0
   -1.6705    6.3878    0.4572 C   0  0  0  1  0  0  0  0  0  0  0  0
   -3.0268    6.6073    0.6071 C   0  0  0  1  0  0  0  0  0  0  0  0
   -3.8590    5.5669    0.9899 C   0  0  0  1  0  0  0  0  0  0  0  0
   -1.3962    2.7180    1.3297 C   0  0  0  1  0  0  0  0  0  0  0  0
   -0.1204    4.9645    0.5860 H   0  0  0  1  0  0  0  0  0  0  0  0
   -1.0467    7.1674    0.1662 H   0  0  0  1  0  0  0  0  0  0  0  0
   -3.4230    7.5529    0.4327 H   0  0  0  1  0  0  0  0  0  0  0  0
   -4.8802    5.7310    1.0987 H   0  0  0  1  0  0  0  0  0  0  0  0
   -2.1781    2.0822    1.6894 H   0  0  0  1  0  0  0  0  0  0  0  0
   -1.0179    2.3317    0.4064 H   0  0  0  1  0  0  0  0  0  0  0  0
  1  4  1  0  0  0  0
  2  4  1  0  0  0  0
  2  5  2  0  0  0  0
  2  6  1  0  0  0  0
  3  4  1  0  0  0  0
  3  7  1  0  0  0  0
  3  8  1  0  0  0  0
  4 26  1  0  0  0  0
  6  9  1  0  0  0  0
  6 12  1  0  0  0  0
  8 10  1  0  0  0  0
  8 11  2  0  0  0  0
  9 13  1  0  0  0  0
  9 14  1  0  0  0  0
  9 15  1  0  0  0  0
 10 16  1  0  0  0  0
 10 17  1  0  0  0  0
 10 18  1  0  0  0  0
 19 20  1  0  0  0  0
 20 21  4  0  0  0  0
 20 25  4  0  0  0  0
 21 22  4  0  0  0  0
 21 26  1  0  0  0  0
 22 23  4  0  0  0  0
 22 27  1  0  0  0  0
 23 24  4  0  0  0  0
 23 28  1  0  0  0  0
 24 25  4  0  0  0  0
 24 29  1  0  0  0  0
 25 30  1  0  0  0  0
 26 31  1  0  0  0  0
 26 32  1  0  0  0  0
M  END
> <BCLConfClusterSize>
1

> <ConfClashScore>
0 

> <ConfOneFourInteractionScore>
-0.940901 

> <ConfScore>
0.106758 

> <ConfScorePBest>
0.00347628 

> <ConfTolerance>
0.80479 

> <RosettaParamsInstructions>
M  ROOT 3
M  POLY_N_BB 3
M  POLY_CA_BB 4
M  POLY_C_BB 2
M  POLY_O_BB 5
M  POLY_IGNORE 9 10 11 12 13 14 15 16 17 18 
M  POLY_UPPER 6
M  POLY_LOWER 8
M  POLY_CHG 0
M  POLY_PROPERTIES ALPHA_AA L_AA PROTEIN AROMATIC POLYMER 
M  END

$$$$



 32 32  0  0  0  0  0  0  0  0999 V2000
   -0.8995    2.3336   -0.6828 H   0  0  0  1  0  0  0  0  0  0  0  0
   -0.7541    0.4701    0.2694 C   0  0  0  1  0  0  0  0  0  0  0  0
   -2.8204    1.6361   -0.3597 N   0  0  0  1  0  0  0  0  0  0  0  0
   -1.4267    1.8175    0.0922 C   0  0  0  1  0  0  0  0  0  0  0  0
    0.4154    0.3578   -0.0953 O   0  0  0  1  0  0  0  0  0  0  0  0
   -1.4621   -0.5197    0.8093 N   0  0  0  1  0  0  0  0  0  0  0  0
   -3.4991    1.3700    0.2952 H   0  0  0  1  0  0  0  0  0  0  0  0
   -3.1885    1.8221   -1.6305 C   0  0  0  1  0  0  0  0  0  0  0  0
   -0.8637   -1.7960    1.1709 C   0  0  0  1  0  0  0  0  0  0  0  0
   -4.5706    1.3279   -1.9930 C   0  0  0  1  0  0  0  0  0  0  0  0
   -2.4629    2.3593   -2.4664 O   0  0  0  1  0  0  0  0  0  0  0  0
   -2.4195   -0.3841    0.9686 H   0  0  0  1  0  0  0  0  0  0  0  0
   -1.5966   -2.5709    1.0859 H   0  0  0  1  0  0  0  0  0  0  0  0
   -0.5087   -1.7502    2.1793 H   0  0  0  1  0  0  0  0  0  0  0  0
   -0.0458   -2.0052    0.5135 H   0  0  0  1  0  0  0  0  0  0  0  0
   -5.1917    1.3329   -1.1217 H   0  0  0  1  0  0  0  0  0  0  0  0
   -4.5034    0.3314   -2.3770 H   0  0  0  1  0  0  0  0  0  0  0  0
   -4.9949    1.9695   -2.7369 H   0  0  0  1  0  0  0  0  0  0  0  0
   -4.1398    3.3019    1.6037 F   0  0  0  1  0  0  0  0  0  0  0  0
   -3.3319    4.3114    1.2268 C   0  0  0  1  0  0  0  0  0  0  0  0
   -1.9715    4.0914    1.0765 C   0  0  0  1  0  0  0  0  0  0  0  0
   -1.1416    5.1287    0.6948 C   0  0  0  1  0  0  0  0  0  0  0  0
   -1.6705    6.3878    0.4572 C   0  0  0  1  0  0  0  0  0  0  0  0
   -3.0268    6.6073    0.6071 C   0  0  0  1  0  0  0  0  0  0  0  0
   -3.8590    5.5669    0.9899 C   0  0  0  1  0  0  0  0  0  0  0  0
   -1.3961    2.7180    1.3297 C   0  0  0  1  0  0  0  0  0  0  0  0
   -0.1204    4.9646    0.5860 H   0  0  0  1  0  0  0  0  0  0  0  0
   -1.0467    7.1673    0.1662 H   0  0  0  1  0  0  0  0  0  0  0  0
   -3.4230    7.5529    0.4327 H   0  0  0  1  0  0  0  0  0  0  0  0
   -4.8802    5.7311    1.0987 H   0  0  0  1  0  0  0  0  0  0  0  0
   -0.3799    2.8276    1.6462 H   0  0  0  1  0  0  0  0  0  0  0  0
   -1.9634    2.2490    2.1063 H   0  0  0  1  0  0  0  0  0  0  0  0
  1  4  1  0  0  0  0
  2  4  1  0  0  0  0
  2  5  2  0  0  0  0
  2  6  1  0  0  0  0
  3  4  1  0  0  0  0
  3  7  1  0  0  0  0
  3  8  1  0  0  0  0
  4 26  1  0  0  0  0
  6  9  1  0  0  0  0
  6 12  1  0  0  0  0
  8 10  1  0  0  0  0
  8 11  2  0  0  0  0
  9 13  1  0  0  0  0
  9 14  1  0  0  0  0
  9 15  1  0  0  0  0
 10 16  1  0  0  0  0
 10 17  1  0  0  0  0
 10 18  1  0  0  0  0
 19 20  1  0  0  0  0
 20 21  4  0  0  0  0
 20 25  4  0  0  0  0
 21 22  4  0  0  0  0
 21 26  1  0  0  0  0
 22 23  4  0  0  0  0
 22 27  1  0  0  0  0
 23 24  4  0  0  0  0
 23 28  1  0  0  0  0
 24 25  4  0  0  0  0
 24 29  1  0  0  0  0
 25 30  1  0  0  0  0
 26 31  1  0  0  0  0
 26 32  1  0  0  0  0
M  END
> <BCLConfClusterSize>
1

> <ConfClashScore>
0 

> <ConfOneFourInteractionScore>
-0.960318 

> <ConfScore>
0.113394 

> <ConfScorePBest>
0.0034478 

> <ConfTolerance>
0.534005 

> <RosettaParamsInstructions>
M  ROOT 3
M  POLY_N_BB 3
M  POLY_CA_BB 4
M  POLY_C_BB 2
M  POLY_O_BB 5
M  POLY_IGNORE 9 10 11 12 13 14 15 16 17 18 
M  POLY_UPPER 6
M  POLY_LOWER 8
M  POLY_CHG 0
M  POLY_PROPERTIES ALPHA_AA L_AA PROTEIN AROMATIC POLYMER 
M  END

$$$$



 32 32  0  0  0  0  0  0  0  0999 V2000
   -0.4608    1.1117    0.3472 H   0  0  0  1  0  0  0  0  0  0  0  0
   -1.4903    2.1826   -1.1416 C   0  0  0  1  0  0  0  0  0  0  0  0
    0.5930    2.8240   -0.0994 N   0  0  0  1  0  0  0  0  0  0  0  0
   -0.6698    2.1389    0.1328 C   0  0  0  1  0  0  0  0  0  0  0  0
   -1.2215    2.9707   -2.0473 O   0  0  0  1  0  0  0  0  0  0  0  0
   -2.5071    1.3184   -1.2071 N   0  0  0  1  0  0  0  0  0  0  0  0
    0.5952    3.6415   -0.6398 H   0  0  0  1  0  0  0  0  0  0  0  0
    1.7608    2.3726    0.4033 C   0  0  0  1  0  0  0  0  0  0  0  0
   -3.4432    1.3024   -2.3213 C   0  0  0  1  0  0  0  0  0  0  0  0
    3.0089    3.1846    0.1406 C   0  0  0  1  0  0  0  0  0  0  0  0
    1.8114    1.3313    1.0566 O   0  0  0  1  0  0  0  0  0  0  0  0
   -2.6269    0.6729   -0.4795 H   0  0  0  1  0  0  0  0  0  0  0  0
   -2.9012    1.2471   -3.2423 H   0  0  0  1  0  0  0  0  0  0  0  0
   -4.0303    2.1968   -2.3065 H   0  0  0  1  0  0  0  0  0  0  0  0
   -4.0861    0.4516   -2.2345 H   0  0  0  1  0  0  0  0  0  0  0  0
    3.3154    3.0498   -0.8756 H   0  0  0  1  0  0  0  0  0  0  0  0
    3.7904    2.8588    0.7948 H   0  0  0  1  0  0  0  0  0  0  0  0
    2.8041    4.2200    0.3168 H   0  0  0  1  0  0  0  0  0  0  0  0
   -4.1391    3.2984    1.5955 F   0  0  0  1  0  0  0  0  0  0  0  0
   -3.3302    4.3096    1.2252 C   0  0  0  1  0  0  0  0  0  0  0  0
   -1.9734    4.0909    1.0783 C   0  0  0  1  0  0  0  0  0  0  0  0
   -1.1418    5.1304    0.6920 C   0  0  0  1  0  0  0  0  0  0  0  0
   -1.6684    6.3868    0.4589 C   0  0  0  1  0  0  0  0  0  0  0  0
   -3.0291    6.6060    0.6062 C   0  0  0  1  0  0  0  0  0  0  0  0
   -3.8586    5.5697    0.9914 C   0  0  0  1  0  0  0  0  0  0  0  0
   -1.3969    2.7193    1.3387 C   0  0  0  1  0  0  0  0  0  0  0  0
   -0.1214    4.9649    0.5776 H   0  0  0  1  0  0  0  0  0  0  0  0
   -1.0437    7.1676    0.1729 H   0  0  0  1  0  0  0  0  0  0  0  0
   -3.4260    7.5505    0.4269 H   0  0  0  1  0  0  0  0  0  0  0  0
   -4.8789    5.7352    1.1058 H   0  0  0  1  0  0  0  0  0  0  0  0
   -0.7054    2.7893    2.1521 H   0  0  0  1  0  0  0  0  0  0  0  0
   -2.1958    2.0590    1.6049 H   0  0  0  1  0  0  0  0  0  0  0  0
  1  4  1  0  0  0  0
  2  4  1  0  0  0  0
  2  5  2  0  0  0  0
  2  6  1  0  0  0  0
  3  4  1  0  0  0  0
  3  7  1  0  0  0  0
  3  8  1  0  0  0  0
  4 26  1  0  0  0  0
  6  9  1  0  0  0  0
  6 12  1  0  0  0  0
  8 10  1  0  0  0  0
  8 11  2  0  0  0  0
  9 13  1  0  0  0  0
  9 14  1  0  0  0  0
  9 15  1  0  0  0  0
 10 16  1  0  0  0  0
 10 17  1  0  0  0  0
 10 18  1  0  0  0  0
 19 20  1  0  0  0  0
 20 21  4  0  0  0  0
 20 25  4  0  0  0  0
 21 22  4  0  0  0  0
 21 26  1  0  0  0  0
 22 23  4  0  0  0  0
 22 27  1  0  0  0  0
 23 24  4  0  0  0  0
 23 28  1  0  0  0  0
 24 25  4  0  0  0  0
 24 29  1  0  0  0  0
 25 30  1  0  0  0  0
 26 31  1  0  0  0  0
 26 32  1  0  0  0  0
M  END
> <BCLConfClusterSize>
1

> <ConfClashScore>
0 

> <ConfOneFourInteractionScore>
-0.987258 

> <ConfScore>
0.114171 

> <ConfScorePBest>
0.00341932 

> <ConfTolerance>
0.628908 

> <RosettaParamsInstructions>
M  ROOT 3
M  POLY_N_BB 3
M  POLY_CA_BB 4
M  POLY_C_BB 2
M  POLY_O_BB 5
M  POLY_IGNORE 9 10 11 12 13 14 15 16 17 18 
M  POLY_UPPER 6
M  POLY_LOWER 8
M  POLY_CHG 0
M  POLY_PROPERTIES ALPHA_AA L_AA PROTEIN AROMATIC POLYMER 
M  END

$$$$



 32 32  0  0  0  0  0  0  0  0999 V2000
    0.1138    2.0216    2.6175 H   0  0  0  1  0  0  0  0  0  0  0  0
   -0.2163    4.0277    3.1427 C   0  0  0  1  0  0  0  0  0  0  0  0
   -1.6111    2.0865    3.7235 N   0  0  0  1  0  0  0  0  0  0  0  0
   -0.7384    2.6618    2.7109 C   0  0  0  1  0  0  0  0  0  0  0  0
    0.8168    4.4874    2.6634 O   0  0  0  1  0  0  0  0  0  0  0  0
   -0.9224    4.7140    4.0651 N   0  0  0  1  0  0  0  0  0  0  0  0
   -2.4597    1.6843    3.4433 H   0  0  0  1  0  0  0  0  0  0  0  0
   -1.2943    2.0877    5.0272 C   0  0  0  1  0  0  0  0  0  0  0  0
   -0.4910    6.0417    4.4761 C   0  0  0  1  0  0  0  0  0  0  0  0
   -2.2146    1.2888    5.9295 C   0  0  0  1  0  0  0  0  0  0  0  0
   -0.3235    2.6920    5.4799 O   0  0  0  1  0  0  0  0  0  0  0  0
   -1.7274    4.3175    4.4591 H   0  0  0  1  0  0  0  0  0  0  0  0
   -0.6784    6.1703    5.5217 H   0  0  0  1  0  0  0  0  0  0  0  0
   -1.0337    6.7798    3.9233 H   0  0  0  1  0  0  0  0  0  0  0  0
    0.5561    6.1512    4.2856 H   0  0  0  1  0  0  0  0  0  0  0  0
   -3.2161    1.3440    5.5570 H   0  0  0  1  0  0  0  0  0  0  0  0
   -2.1801    1.6915    6.9202 H   0  0  0  1  0  0  0  0  0  0  0  0
   -1.8970    0.2672    5.9479 H   0  0  0  1  0  0  0  0  0  0  0  0
   -4.1391    3.2984    1.5955 F   0  0  0  1  0  0  0  0  0  0  0  0
   -3.3302    4.3096    1.2252 C   0  0  0  1  0  0  0  0  0  0  0  0
   -1.9734    4.0909    1.0783 C   0  0  0  1  0  0  0  0  0  0  0  0
   -1.1418    5.1304    0.6920 C   0  0  0  1  0  0  0  0  0  0  0  0
   -1.6684    6.3868    0.4589 C   0  0  0  1  0  0  0  0  0  0  0  0
   -3.0291    6.6060    0.6062 C   0  0  0  1  0  0  0  0  0  0  0  0
   -3.8586    5.5697    0.9914 C   0  0  0  1  0  0  0  0  0  0  0  0
   -1.3969    2.7193    1.3387 C   0  0  0  1  0  0  0  0  0  0  0  0
   -0.1214    4.9649    0.5776 H   0  0  0  1  0  0  0  0  0  0  0  0
   -1.0437    7.1676    0.1729 H   0  0  0  1  0  0  0  0  0  0  0  0
   -3.4260    7.5505    0.4269 H   0  0  0  1  0  0  0  0  0  0  0  0
   -4.8789    5.7352    1.1058 H   0  0  0  1  0  0  0  0  0  0  0  0
   -2.1830    1.9945    1.2962 H   0  0  0  1  0  0  0  0  0  0  0  0
   -0.6660    2.4978    0.5893 H   0  0  0  1  0  0  0  0  0  0  0  0
  1  4  1  0  0  0  0
  2  4  1  0  0  0  0
  2  5  2  0  0  0  0
  2  6  1  0  0  0  0
  3  4  1  0  0  0  0
  3  7  1  0  0  0  0
  3  8  1  0  0  0  0
  4 26  1  0  0  0  0
  6  9  1  0  0  0  0
  6 12  1  0  0  0  0
  8 10  1  0  0  0  0
  8 11  2  0  0  0  0
  9 13  1  0  0  0  0
  9 14  1  0  0  0  0
  9 15  1  0  0  0  0
 10 16  1  0  0  0  0
 10 17  1  0  0  0  0
 10 18  1  0  0  0  0
 19 20  1  0  0  0  0
 20 21  4  0  0  0  0
 20 25  4  0  0  0  0
 21 22  4  0  0  0  0
 21 26  1  0  0  0  0
 22 23  4  0  0  0  0
 22 27  1  0  0  0  0
 23 24  4  0  0  0  0
 23 28  1  0  0  0  0
 24 25  4  0  0  0  0
 24 29  1  0  0  0  0
 25 30  1  0  0  0  0
 26 31  1  0  0  0  0
 26 32  1  0  0  0  0
M  END
> <BCLConfClusterSize>
1

> <ConfClashScore>
0 

> <ConfOneFourInteractionScore>
-0.942345 

> <ConfScore>
0.118168 

> <ConfScorePBest>
0.00339084 

> <ConfTolerance>
0.739256 

> <RosettaParamsInstructions>
M  ROOT 3
M  POLY_N_BB 3
M  POLY_CA_BB 4
M  POLY_C_BB 2
M  POLY_O_BB 5
M  POLY_IGNORE 9 10 11 12 13 14 15 16 17 18 
M  POLY_UPPER 6
M  POLY_LOWER 8
M  POLY_CHG 0
M  POLY_PROPERTIES ALPHA_AA L_AA PROTEIN AROMATIC POLYMER 
M  END

$$$$



 32 32  0  0  0  0  0  0  0  0999 V2000
   -2.5091    1.6017   -0.0580 H   0  0  0  1  0  0  0  0  0  0  0  0
   -0.9145    2.4768   -1.1139 C   0  0  0  1  0  0  0  0  0  0  0  0
   -0.8158    0.5347    0.4181 N   0  0  0  1  0  0  0  0  0  0  0  0
   -1.4738    1.7995    0.1261 C   0  0  0  1  0  0  0  0  0  0  0  0
    0.2644    2.3320   -1.4345 O   0  0  0  1  0  0  0  0  0  0  0  0
   -1.7403    3.2324   -1.8434 N   0  0  0  1  0  0  0  0  0  0  0  0
    0.1517    0.4621    0.2804 H   0  0  0  1  0  0  0  0  0  0  0  0
   -1.4916   -0.5413    0.8717 C   0  0  0  1  0  0  0  0  0  0  0  0
   -1.2993    3.9341   -3.0396 C   0  0  0  1  0  0  0  0  0  0  0  0
   -0.7178   -1.8256    1.0982 C   0  0  0  1  0  0  0  0  0  0  0  0
   -2.6999   -0.4849    1.0958 O   0  0  0  1  0  0  0  0  0  0  0  0
   -2.6756    3.3170   -1.5632 H   0  0  0  1  0  0  0  0  0  0  0  0
   -0.2970    4.2819   -2.9006 H   0  0  0  1  0  0  0  0  0  0  0  0
   -1.9441    4.7684   -3.2216 H   0  0  0  1  0  0  0  0  0  0  0  0
   -1.3325    3.2679   -3.8763 H   0  0  0  1  0  0  0  0  0  0  0  0
   -1.3703   -2.6635    0.9675 H   0  0  0  1  0  0  0  0  0  0  0  0
   -0.3229   -1.8331    2.0927 H   0  0  0  1  0  0  0  0  0  0  0  0
    0.0858   -1.8863    0.3944 H   0  0  0  1  0  0  0  0  0  0  0  0
   -4.1392    3.2983    1.5955 F   0  0  0  1  0  0  0  0  0  0  0  0
   -3.3303    4.3095    1.2252 C   0  0  0  1  0  0  0  0  0  0  0  0
   -1.9735    4.0910    1.0783 C   0  0  0  1  0  0  0  0  0  0  0  0
   -1.1417    5.1304    0.6920 C   0  0  0  1  0  0  0  0  0  0  0  0
   -1.6684    6.3867    0.4589 C   0  0  0  1  0  0  0  0  0  0  0  0
   -3.0292    6.6061    0.6062 C   0  0  0  1  0  0  0  0  0  0  0  0
   -3.8585    5.5697    0.9914 C   0  0  0  1  0  0  0  0  0  0  0  0
   -1.3970    2.7194    1.3387 C   0  0  0  1  0  0  0  0  0  0  0  0
   -0.1213    4.9649    0.5776 H   0  0  0  1  0  0  0  0  0  0  0  0
   -1.0438    7.1675    0.1730 H   0  0  0  1  0  0  0  0  0  0  0  0
   -3.4261    7.5506    0.4269 H   0  0  0  1  0  0  0  0  0  0  0  0
   -4.8788    5.7352    1.1058 H   0  0  0  1  0  0  0  0  0  0  0  0
   -0.3700    2.8291    1.6185 H   0  0  0  1  0  0  0  0  0  0  0  0
   -1.9401    2.2687    2.1429 H   0  0  0  1  0  0  0  0  0  0  0  0
  1  4  1  0  0  0  0
  2  4  1  0  0  0  0
  2  5  2  0  0  0  0
  2  6  1  0  0  0  0
  3  4  1  0  0  0  0
  3  7  1  0  0  0  0
  3  8  1  0  0  0  0
  4 26  1  0  0  0  0
  6  9  1  0  0  0  0
  6 12  1  0  0  0  0
  8 10  1  0  0  0  0
  8 11  2  0  0  0  0
  9 13  1  0  0  0  0
  9 14  1  0  0  0  0
  9 15  1  0  0  0  0
 10 16  1  0  0  0  0
 10 17  1  0  0  0  0
 10 18  1  0  0  0  0
 19 20  1  0  0  0  0
 20 21  4  0  0  0  0
 20 25  4  0  0  0  0
 21 22  4  0  0  0  0
 21 26  1  0  0  0  0
 22 23  4  0  0  0  0
 22 27  1  0  0  0  0
 23 24  4  0  0  0  0
 23 28  1  0  0  0  0
 24 25  4  0  0  0  0
 24 29  1  0  0  0  0
 25 30  1  0  0  0  0
 26 31  1  0  0  0  0
 26 32  1  0  0  0  0
M  END
> <BCLConfClusterSize>
1

> <ConfClashScore>
0 

> <ConfOneFourInteractionScore>
-0.990503 

> <ConfScore>
0.121022 

> <ConfScorePBest>
0.00336236 

> <ConfTolerance>
0.765502 

> <RosettaParamsInstructions>
M  ROOT 3
M  POLY_N_BB 3
M  POLY_CA_BB 4
M  POLY_C_BB 2
M  POLY_O_BB 5
M  POLY_IGNORE 9 10 11 12 13 14 15 16 17 18 
M  POLY_UPPER 6
M  POLY_LOWER 8
M  POLY_CHG 0
M  POLY_PROPERTIES ALPHA_AA L_AA PROTEIN AROMATIC POLYMER 
M  END

$$$$



 32 32  0  0  0  0  0  0  0  0999 V2000
   -0.7096    1.4180    2.8186 H   0  0  0  1  0  0  0  0  0  0  0  0
    0.3279    3.2051    3.1318 C   0  0  0  1  0  0  0  0  0  0  0  0
   -2.0118    2.6809    3.7478 N   0  0  0  1  0  0  0  0  0  0  0  0
   -0.9548    2.4585    2.7726 C   0  0  0  1  0  0  0  0  0  0  0  0
    1.3481    3.0732    2.4570 O   0  0  0  1  0  0  0  0  0  0  0  0
    0.2681    3.9267    4.2579 N   0  0  0  1  0  0  0  0  0  0  0  0
   -2.6430    3.4101    3.5736 H   0  0  0  1  0  0  0  0  0  0  0  0
   -2.1881    1.9597    4.8722 C   0  0  0  1  0  0  0  0  0  0  0  0
    1.3442    4.8157    4.6695 C   0  0  0  1  0  0  0  0  0  0  0  0
   -3.3500    2.4330    5.7238 C   0  0  0  1  0  0  0  0  0  0  0  0
   -1.4914    1.0025    5.2066 O   0  0  0  1  0  0  0  0  0  0  0  0
   -0.5280    3.8537    4.8246 H   0  0  0  1  0  0  0  0  0  0  0  0
    1.2291    5.7634    4.1863 H   0  0  0  1  0  0  0  0  0  0  0  0
    2.2853    4.3874    4.3946 H   0  0  0  1  0  0  0  0  0  0  0  0
    1.3093    4.9501    5.7305 H   0  0  0  1  0  0  0  0  0  0  0  0
   -3.7788    1.5986    6.2384 H   0  0  0  1  0  0  0  0  0  0  0  0
   -4.0906    2.8843    5.0972 H   0  0  0  1  0  0  0  0  0  0  0  0
   -3.0004    3.1501    6.4369 H   0  0  0  1  0  0  0  0  0  0  0  0
   -4.1392    3.2983    1.5955 F   0  0  0  1  0  0  0  0  0  0  0  0
   -3.3303    4.3095    1.2252 C   0  0  0  1  0  0  0  0  0  0  0  0
   -1.9735    4.0910    1.0783 C   0  0  0  1  0  0  0  0  0  0  0  0
   -1.1417    5.1304    0.6920 C   0  0  0  1  0  0  0  0  0  0  0  0
   -1.6684    6.3867    0.4589 C   0  0  0  1  0  0  0  0  0  0  0  0
   -3.0292    6.6061    0.6062 C   0  0  0  1  0  0  0  0  0  0  0  0
   -3.8585    5.5697    0.9914 C   0  0  0  1  0  0  0  0  0  0  0  0
   -1.3970    2.7194    1.3387 C   0  0  0  1  0  0  0  0  0  0  0  0
   -0.1213    4.9649    0.5776 H   0  0  0  1  0  0  0  0  0  0  0  0
   -1.0438    7.1675    0.1730 H   0  0  0  1  0  0  0  0  0  0  0  0
   -3.4261    7.5506    0.4269 H   0  0  0  1  0  0  0  0  0  0  0  0
   -4.8788    5.7352    1.1058 H   0  0  0  1  0  0  0  0  0  0  0  0
   -2.1425    1.9946    1.0862 H   0  0  0  1  0  0  0  0  0  0  0  0
   -0.5459    2.5928    0.7026 H   0  0  0  1  0  0  0  0  0  0  0  0
  1  4  1  0  0  0  0
  2  4  1  0  0  0  0
  2  5  2  0  0  0  0
  2  6  1  0  0  0  0
  3  4  1  0  0  0  0
  3  7  1  0  0  0  0
  3  8  1  0  0  0  0
  4 26  1  0  0  0  0
  6  9  1  0  0  0  0
  6 12  1  0  0  0  0
  8 10  1  0  0  0  0
  8 11  2  0  0  0  0
  9 13  1  0  0  0  0
  9 14  1  0  0  0  0
  9 15  1  0  0  0  0
 10 16  1  0  0  0  0
 10 17  1  0  0  0  0
 10 18  1  0  0  0  0
 19 20  1  0  0  0  0
 20 21  4  0  0  0  0
 20 25  4  0  0  0  0
 21 22  4  0  0  0  0
 21 26  1  0  0  0  0
 22 23  4  0  0  0  0
 22 27  1  0  0  0  0
 23 24  4  0  0  0  0
 23 28  1  0  0  0  0
 24 25  4  0  0  0  0
 24 29  1  0  0  0  0
 25 30  1  0  0  0  0
 26 31  1  0  0  0  0
 26 32  1  0  0  0  0
M  END
> <BCLConfClusterSize>
1

> <ConfClashScore>
0 

> <ConfOneFourInteractionScore>
-0.931937 

> <ConfScore>
0.123532 

> <ConfScorePBest>
0.00333388 

> <ConfTolerance>
0.53024 

> <RosettaParamsInstructions>
M  ROOT 3
M  POLY_N_BB 3
M  POLY_CA_BB 4
M  POLY_C_BB 2
M  POLY_O_BB 5
M  POLY_IGNORE 9 10 11 12 13 14 15 16 17 18 
M  POLY_UPPER 6
M  POLY_LOWER 8
M  POLY_CHG 0
M  POLY_PROPERTIES ALPHA_AA L_AA PROTEIN AROMATIC POLYMER 
M  END

$$$$



 32 32  0  0  0  0  0  0  0  0999 V2000
   -0.1902    3.3149    2.9572 H   0  0  0  1  0  0  0  0  0  0  0  0
   -1.9649    2.5184    3.7727 C   0  0  0  1  0  0  0  0  0  0  0  0
   -0.0995    1.2588    2.8727 N   0  0  0  1  0  0  0  0  0  0  0  0
   -0.8468    2.4989    2.7383 C   0  0  0  1  0  0  0  0  0  0  0  0
   -2.5163    1.4927    4.1382 O   0  0  0  1  0  0  0  0  0  0  0  0
   -2.2627    3.7422    4.2185 N   0  0  0  1  0  0  0  0  0  0  0  0
   -0.5469    0.4515    3.2021 H   0  0  0  1  0  0  0  0  0  0  0  0
    1.1938    1.2177    2.5486 C   0  0  0  1  0  0  0  0  0  0  0  0
   -3.1105    3.9612    5.3809 C   0  0  0  1  0  0  0  0  0  0  0  0
    1.8772   -0.1230    2.7343 C   0  0  0  1  0  0  0  0  0  0  0  0
    1.8084    2.1932    2.1253 O   0  0  0  1  0  0  0  0  0  0  0  0
   -1.8975    4.5194    3.7462 H   0  0  0  1  0  0  0  0  0  0  0  0
   -3.1268    3.0767    5.9827 H   0  0  0  1  0  0  0  0  0  0  0  0
   -4.1045    4.1915    5.0587 H   0  0  0  1  0  0  0  0  0  0  0  0
   -2.7234    4.7764    5.9558 H   0  0  0  1  0  0  0  0  0  0  0  0
    1.2079   -0.9076    2.4491 H   0  0  0  1  0  0  0  0  0  0  0  0
    2.1513   -0.2441    3.7615 H   0  0  0  1  0  0  0  0  0  0  0  0
    2.7548   -0.1635    2.1234 H   0  0  0  1  0  0  0  0  0  0  0  0
   -4.1392    3.2983    1.5955 F   0  0  0  1  0  0  0  0  0  0  0  0
   -3.3303    4.3095    1.2252 C   0  0  0  1  0  0  0  0  0  0  0  0
   -1.9735    4.0910    1.0783 C   0  0  0  1  0  0  0  0  0  0  0  0
   -1.1417    5.1304    0.6920 C   0  0  0  1  0  0  0  0  0  0  0  0
   -1.6684    6.3867    0.4589 C   0  0  0  1  0  0  0  0  0  0  0  0
   -3.0292    6.6061    0.6062 C   0  0  0  1  0  0  0  0  0  0  0  0
   -3.8585    5.5697    0.9914 C   0  0  0  1  0  0  0  0  0  0  0  0
   -1.3970    2.7194    1.3387 C   0  0  0  1  0  0  0  0  0  0  0  0
   -0.1213    4.9649    0.5776 H   0  0  0  1  0  0  0  0  0  0  0  0
   -1.0438    7.1675    0.1730 H   0  0  0  1  0  0  0  0  0  0  0  0
   -3.4261    7.5506    0.4269 H   0  0  0  1  0  0  0  0  0  0  0  0
   -4.8788    5.7352    1.1058 H   0  0  0  1  0  0  0  0  0  0  0  0
   -2.1701    1.9990    1.1707 H   0  0  0  1  0  0  0  0  0  0  0  0
   -0.6011    2.5581    0.6420 H   0  0  0  1  0  0  0  0  0  0  0  0
  1  4  1  0  0  0  0
  2  4  1  0  0  0  0
  2  5  2  0  0  0  0
  2  6  1  0  0  0  0
  3  4  1  0  0  0  0
  3  7  1  0  0  0  0
  3  8  1  0  0  0  0
  4 26  1  0  0  0  0
  6  9  1  0  0  0  0
  6 12  1  0  0  0  0
  8 10  1  0  0  0  0
  8 11  2  0  0  0  0
  9 13  1  0  0  0  0
  9 14  1  0  0  0  0
  9 15  1  0  0  0  0
 10 16  1  0  0  0  0
 10 17  1  0  0  0  0
 10 18  1  0  0  0  0
 19 20  1  0  0  0  0
 20 21  4  0  0  0  0
 20 25  4  0  0  0  0
 21 22  4  0  0  0  0
 21 26  1  0  0  0  0
 22 23  4  0  0  0  0
 22 27  1  0  0  0  0
 23 24  4  0  0  0  0
 23 28  1  0  0  0  0
 24 25  4  0  0  0  0
 24 29  1  0  0  0  0
 25 30  1  0  0  0  0
 26 31  1  0  0  0  0
 26 32  1  0  0  0  0
M  END
> <BCLConfClusterSize>
1

> <ConfClashScore>
0 

> <ConfOneFourInteractionScore>
-0.982823 

> <ConfScore>
0.124429 

> <ConfScorePBest>
0.0033054 

> <ConfTolerance>
0.660438 

> <RosettaParamsInstructions>
M  ROOT 3
M  POLY_N_BB 3
M  POLY_CA_BB 4
M  POLY_C_BB 2
M  POLY_O_BB 5
M  POLY_IGNORE 9 10 11 12 13 14 15 16 17 18 
M  POLY_UPPER 6
M  POLY_LOWER 8
M  POLY_CHG 0
M  POLY_PROPERTIES ALPHA_AA L_AA PROTEIN AROMATIC POLYMER 
M  END

$$$$



 32 32  0  0  0  0  0  0  0  0999 V2000
   -1.0526    2.2711   -0.7000 H   0  0  0  1  0  0  0  0  0  0  0  0
    0.7796    2.9261    0.1242 C   0  0  0  1  0  0  0  0  0  0  0  0
   -0.2574    0.7409    0.4400 N   0  0  0  1  0  0  0  0  0  0  0  0
   -0.5259    2.1548    0.2241 C   0  0  0  1  0  0  0  0  0  0  0  0
    1.6122    2.8920    1.0293 O   0  0  0  1  0  0  0  0  0  0  0  0
    0.9537    3.6337   -1.0025 N   0  0  0  1  0  0  0  0  0  0  0  0
   -0.7600    0.2872    1.1485 H   0  0  0  1  0  0  0  0  0  0  0  0
    0.6315    0.0075   -0.2617 C   0  0  0  1  0  0  0  0  0  0  0  0
    2.0953    4.5265   -1.1355 C   0  0  0  1  0  0  0  0  0  0  0  0
    0.8425   -1.4378    0.1455 C   0  0  0  1  0  0  0  0  0  0  0  0
    1.2527    0.4939   -1.2030 O   0  0  0  1  0  0  0  0  0  0  0  0
    0.3109    3.5490   -1.7373 H   0  0  0  1  0  0  0  0  0  0  0  0
    1.9562    5.3803   -0.5059 H   0  0  0  1  0  0  0  0  0  0  0  0
    2.1822    4.8446   -2.1534 H   0  0  0  1  0  0  0  0  0  0  0  0
    2.9867    4.0109   -0.8451 H   0  0  0  1  0  0  0  0  0  0  0  0
    1.2778   -1.4738    1.1223 H   0  0  0  1  0  0  0  0  0  0  0  0
    1.4976   -1.9132   -0.5544 H   0  0  0  1  0  0  0  0  0  0  0  0
   -0.0989   -1.9463    0.1558 H   0  0  0  1  0  0  0  0  0  0  0  0
   -4.1391    3.2985    1.5955 F   0  0  0  1  0  0  0  0  0  0  0  0
   -3.3302    4.3097    1.2252 C   0  0  0  1  0  0  0  0  0  0  0  0
   -1.9734    4.0909    1.0783 C   0  0  0  1  0  0  0  0  0  0  0  0
   -1.1417    5.1304    0.6920 C   0  0  0  1  0  0  0  0  0  0  0  0
   -1.6684    6.3868    0.4589 C   0  0  0  1  0  0  0  0  0  0  0  0
   -3.0292    6.6060    0.6062 C   0  0  0  1  0  0  0  0  0  0  0  0
   -3.8585    5.5697    0.9914 C   0  0  0  1  0  0  0  0  0  0  0  0
   -1.3970    2.7192    1.3387 C   0  0  0  1  0  0  0  0  0  0  0  0
   -0.1214    4.9649    0.5776 H   0  0  0  1  0  0  0  0  0  0  0  0
   -1.0438    7.1677    0.1729 H   0  0  0  1  0  0  0  0  0  0  0  0
   -3.4261    7.5504    0.4269 H   0  0  0  1  0  0  0  0  0  0  0  0
   -4.8789    5.7352    1.1058 H   0  0  0  1  0  0  0  0  0  0  0  0
   -0.8024    2.7742    2.2266 H   0  0  0  1  0  0  0  0  0  0  0  0
   -2.2115    2.0432    1.4956 H   0  0  0  1  0  0  0  0  0  0  0  0
  1  4  1  0  0  0  0
  2  4  1  0  0  0  0
  2  5  2  0  0  0  0
  2  6  1  0  0  0  0
  3  4  1  0  0  0  0
  3  7  1  0  0  0  0
  3  8  1  0  0  0  0
  4 26  1  0  0  0  0
  6  9  1  0  0  0  0
  6 12  1  0  0  0  0
  8 10  1  0  0  0  0
  8 11  2  0  0  0  0
  9 13  1  0  0  0  0
  9 14  1  0  0  0  0
  9 15  1  0  0  0  0
 10 16  1  0  0  0  0
 10 17  1  0  0  0  0
 10 18  1  0  0  0  0
 19 20  1  0  0  0  0
 20 21  4  0  0  0  0
 20 25  4  0  0  0  0
 21 22  4  0  0  0  0
 21 26  1  0  0  0  0
 22 23  4  0  0  0  0
 22 27  1  0  0  0  0
 23 24  4  0  0  0  0
 23 28  1  0  0  0  0
 24 25  4  0  0  0  0
 24 29  1  0  0  0  0
 25 30  1  0  0  0  0
 26 31  1  0  0  0  0
 26 32  1  0  0  0  0
M  END
> <BCLConfClusterSize>
1

> <ConfClashScore>
0 

> <ConfOneFourInteractionScore>
-0.978127 

> <ConfScore>
0.129018 

> <ConfScorePBest>
0.00327691 

> <ConfTolerance>
0.867552 

> <RosettaParamsInstructions>
M  ROOT 3
M  POLY_N_BB 3
M  POLY_CA_BB 4
M  POLY_C_BB 2
M  POLY_O_BB 5
M  POLY_IGNORE 9 10 11 12 13 14 15 16 17 18 
M  POLY_UPPER 6
M  POLY_LOWER 8
M  POLY_CHG 0
M  POLY_PROPERTIES ALPHA_AA L_AA PROTEIN AROMATIC POLYMER 
M  END

$$$$



 32 32  0  0  0  0  0  0  0  0999 V2000
   -0.1438    2.3717    2.9741 H   0  0  0  1  0  0  0  0  0  0  0  0
   -1.7167    3.4877    3.7629 C   0  0  0  1  0  0  0  0  0  0  0  0
   -1.7514    1.0978    3.1583 N   0  0  0  1  0  0  0  0  0  0  0  0
   -1.2008    2.4267    2.8173 C   0  0  0  1  0  0  0  0  0  0  0  0
   -0.9640    4.3486    4.2165 O   0  0  0  1  0  0  0  0  0  0  0  0
   -3.0181    3.4614    4.0914 N   0  0  0  1  0  0  0  0  0  0  0  0
   -2.1503    0.5544    2.4469 H   0  0  0  1  0  0  0  0  0  0  0  0
   -1.7241    0.6118    4.4025 C   0  0  0  1  0  0  0  0  0  0  0  0
   -3.6656    4.3907    5.0053 C   0  0  0  1  0  0  0  0  0  0  0  0
   -2.3156   -0.7728    4.5820 C   0  0  0  1  0  0  0  0  0  0  0  0
   -1.2534    1.2333    5.3543 O   0  0  0  1  0  0  0  0  0  0  0  0
   -3.5739    2.7639    3.6853 H   0  0  0  1  0  0  0  0  0  0  0  0
   -3.1102    5.3047    5.0382 H   0  0  0  1  0  0  0  0  0  0  0  0
   -3.7023    3.9605    5.9843 H   0  0  0  1  0  0  0  0  0  0  0  0
   -4.6603    4.5901    4.6653 H   0  0  0  1  0  0  0  0  0  0  0  0
   -3.3559   -0.7519    4.3328 H   0  0  0  1  0  0  0  0  0  0  0  0
   -2.1991   -1.0809    5.6000 H   0  0  0  1  0  0  0  0  0  0  0  0
   -1.8091   -1.4627    3.9398 H   0  0  0  1  0  0  0  0  0  0  0  0
   -4.1391    3.2985    1.5955 F   0  0  0  1  0  0  0  0  0  0  0  0
   -3.3302    4.3097    1.2252 C   0  0  0  1  0  0  0  0  0  0  0  0
   -1.9734    4.0909    1.0783 C   0  0  0  1  0  0  0  0  0  0  0  0
   -1.1417    5.1304    0.6920 C   0  0  0  1  0  0  0  0  0  0  0  0
   -1.6684    6.3868    0.4589 C   0  0  0  1  0  0  0  0  0  0  0  0
   -3.0292    6.6060    0.6062 C   0  0  0  1  0  0  0  0  0  0  0  0
   -3.8585    5.5697    0.9914 C   0  0  0  1  0  0  0  0  0  0  0  0
   -1.3970    2.7192    1.3387 C   0  0  0  1  0  0  0  0  0  0  0  0
   -0.1214    4.9649    0.5776 H   0  0  0  1  0  0  0  0  0  0  0  0
   -1.0438    7.1677    0.1729 H   0  0  0  1  0  0  0  0  0  0  0  0
   -3.4261    7.5504    0.4269 H   0  0  0  1  0  0  0  0  0  0  0  0
   -4.8789    5.7352    1.1058 H   0  0  0  1  0  0  0  0  0  0  0  0
   -2.0630    1.9871    0.9322 H   0  0  0  1  0  0  0  0  0  0  0  0
   -0.4481    2.6500    0.8490 H   0  0  0  1  0  0  0  0  0  0  0  0
  1  4  1  0  0  0  0
  2  4  1  0  0  0  0
  2  5  2  0  0  0  0
  2  6  1  0  0  0  0
  3  4  1  0  0  0  0
  3  7  1  0  0  0  0
  3  8  1  0  0  0  0
  4 26  1  0  0  0  0
  6  9  1  0  0  0  0
  6 12  1  0  0  0  0
  8 10  1  0  0  0  0
  8 11  2  0  0  0  0
  9 13  1  0  0  0  0
  9 14  1  0  0  0  0
  9 15  1  0  0  0  0
 10 16  1  0  0  0  0
 10 17  1  0  0  0  0
 10 18  1  0  0  0  0
 19 20  1  0  0  0  0
 20 21  4  0  0  0  0
 20 25  4  0  0  0  0
 21 22  4  0  0  0  0
 21 26  1  0  0  0  0
 22 23  4  0  0  0  0
 22 27  1  0  0  0  0
 23 24  4  0  0  0  0
 23 28  1  0  0  0  0
 24 25  4  0  0  0  0
 24 29  1  0  0  0  0
 25 30  1  0  0  0  0
 26 31  1  0  0  0  0
 26 32  1  0  0  0  0
M  END
> <BCLConfClusterSize>
1

> <ConfClashScore>
0 

> <ConfOneFourInteractionScore>
-0.942345 

> <ConfScore>
0.129382 

> <ConfScorePBest>
0.00324843 

> <ConfTolerance>
0.996648 

> <RosettaParamsInstructions>
M  ROOT 3
M  POLY_N_BB 3
M  POLY_CA_BB 4
M  POLY_C_BB 2
M  POLY_O_BB 5
M  POLY_IGNORE 9 10 11 12 13 14 15 16 17 18 
M  POLY_UPPER 6
M  POLY_LOWER 8
M  POLY_CHG 0
M  POLY_PROPERTIES ALPHA_AA L_AA PROTEIN AROMATIC POLYMER 
M  END

$$$$



 32 32  0  0  0  0  0  0  0  0999 V2000
   -2.5220    2.1408    3.0134 H   0  0  0  1  0  0  0  0  0  0  0  0
   -0.8635    0.8430    2.9202 C   0  0  0  1  0  0  0  0  0  0  0  0
   -0.8889    3.2090    3.6656 N   0  0  0  1  0  0  0  0  0  0  0  0
   -1.4839    2.2288    2.7694 C   0  0  0  1  0  0  0  0  0  0  0  0
   -0.9397    0.0100    2.0355 O   0  0  0  1  0  0  0  0  0  0  0  0
   -0.2492    0.6542    4.0915 N   0  0  0  1  0  0  0  0  0  0  0  0
   -1.4450    3.6070    4.3676 H   0  0  0  1  0  0  0  0  0  0  0  0
    0.3891    3.5853    3.5645 C   0  0  0  1  0  0  0  0  0  0  0  0
    0.4193   -0.5943    4.4264 C   0  0  0  1  0  0  0  0  0  0  0  0
    0.8788    4.5470    4.6297 C   0  0  0  1  0  0  0  0  0  0  0  0
    1.1346    3.1881    2.6730 O   0  0  0  1  0  0  0  0  0  0  0  0
   -0.2487    1.3818    4.7480 H   0  0  0  1  0  0  0  0  0  0  0  0
   -0.1683   -1.4184    4.0791 H   0  0  0  1  0  0  0  0  0  0  0  0
    0.5365   -0.6623    5.4878 H   0  0  0  1  0  0  0  0  0  0  0  0
    1.3812   -0.6202    3.9585 H   0  0  0  1  0  0  0  0  0  0  0  0
    0.6703    4.1433    5.5984 H   0  0  0  1  0  0  0  0  0  0  0  0
    0.3779    5.4860    4.5195 H   0  0  0  1  0  0  0  0  0  0  0  0
    1.9338    4.6902    4.5227 H   0  0  0  1  0  0  0  0  0  0  0  0
   -4.1398    3.3019    1.6037 F   0  0  0  1  0  0  0  0  0  0  0  0
   -3.3319    4.3114    1.2268 C   0  0  0  1  0  0  0  0  0  0  0  0
   -1.9716    4.0914    1.0765 C   0  0  0  1  0  0  0  0  0  0  0  0
   -1.1416    5.1287    0.6948 C   0  0  0  1  0  0  0  0  0  0  0  0
   -1.6705    6.3878    0.4572 C   0  0  0  1  0  0  0  0  0  0  0  0
   -3.0268    6.6073    0.6071 C   0  0  0  1  0  0  0  0  0  0  0  0
   -3.8590    5.5669    0.9899 C   0  0  0  1  0  0  0  0  0  0  0  0
   -1.3962    2.7180    1.3297 C   0  0  0  1  0  0  0  0  0  0  0  0
   -0.1204    4.9645    0.5860 H   0  0  0  1  0  0  0  0  0  0  0  0
   -1.0467    7.1674    0.1662 H   0  0  0  1  0  0  0  0  0  0  0  0
   -3.4230    7.5529    0.4327 H   0  0  0  1  0  0  0  0  0  0  0  0
   -4.8802    5.7310    1.0987 H   0  0  0  1  0  0  0  0  0  0  0  0
   -1.9221    2.0207    0.7116 H   0  0  0  1  0  0  0  0  0  0  0  0
   -0.3637    2.7359    1.0495 H   0  0  0  1  0  0  0  0  0  0  0  0
  1  4  1  0  0  0  0
  2  4  1  0  0  0  0
  2  5  2  0  0  0  0
  2  6  1  0  0  0  0
  3  4  1  0  0  0  0
  3  7  1  0  0  0  0
  3  8  1  0  0  0  0
  4 26  1  0  0  0  0
  6  9  1  0  0  0  0
  6 12  1  0  0  0  0
  8 10  1  0  0  0  0
  8 11  2  0  0  0  0
  9 13  1  0  0  0  0
  9 14  1  0  0  0  0
  9 15  1  0  0  0  0
 10 16  1  0  0  0  0
 10 17  1  0  0  0  0
 10 18  1  0  0  0  0
 19 20  1  0  0  0  0
 20 21  4  0  0  0  0
 20 25  4  0  0  0  0
 21 22  4  0  0  0  0
 21 26  1  0  0  0  0
 22 23  4  0  0  0  0
 22 27  1  0  0  0  0
 23 24  4  0  0  0  0
 23 28  1  0  0  0  0
 24 25  4  0  0  0  0
 24 29  1  0  0  0  0
 25 30  1  0  0  0  0
 26 31  1  0  0  0  0
 26 32  1  0  0  0  0
M  END
> <BCLConfClusterSize>
1

> <ConfClashScore>
0 

> <ConfOneFourInteractionScore>
-0.938662 

> <ConfScore>
0.14119 

> <ConfScorePBest>
0.00321995 

> <ConfTolerance>
0.422496 

> <RosettaParamsInstructions>
M  ROOT 3
M  POLY_N_BB 3
M  POLY_CA_BB 4
M  POLY_C_BB 2
M  POLY_O_BB 5
M  POLY_IGNORE 9 10 11 12 13 14 15 16 17 18 
M  POLY_UPPER 6
M  POLY_LOWER 8
M  POLY_CHG 0
M  POLY_PROPERTIES ALPHA_AA L_AA PROTEIN AROMATIC POLYMER 
M  END

$$$$



 32 32  0  0  0  0  0  0  0  0999 V2000
   -1.6915    2.9797    3.3981 H   0  0  0  1  0  0  0  0  0  0  0  0
   -0.8274    1.0848    3.2452 C   0  0  0  1  0  0  0  0  0  0  0  0
    0.3160    3.2637    3.0330 N   0  0  0  1  0  0  0  0  0  0  0  0
   -0.9409    2.5261    2.7850 C   0  0  0  1  0  0  0  0  0  0  0  0
   -0.2069    0.2530    2.5883 O   0  0  0  1  0  0  0  0  0  0  0  0
   -1.4405    0.7929    4.3959 N   0  0  0  1  0  0  0  0  0  0  0  0
    0.8219    3.5722    2.2524 H   0  0  0  1  0  0  0  0  0  0  0  0
    0.8135    3.5410    4.2392 C   0  0  0  1  0  0  0  0  0  0  0  0
   -1.3189   -0.5099    5.0328 C   0  0  0  1  0  0  0  0  0  0  0  0
    2.1544    4.2488    4.2519 C   0  0  0  1  0  0  0  0  0  0  0  0
    0.2368    3.2495    5.2836 O   0  0  0  1  0  0  0  0  0  0  0  0
   -1.9912    1.4800    4.8259 H   0  0  0  1  0  0  0  0  0  0  0  0
   -2.2151   -0.7273    5.5755 H   0  0  0  1  0  0  0  0  0  0  0  0
   -0.4876   -0.5012    5.7064 H   0  0  0  1  0  0  0  0  0  0  0  0
   -1.1646   -1.2593    4.2848 H   0  0  0  1  0  0  0  0  0  0  0  0
    2.4312    4.4715    5.2612 H   0  0  0  1  0  0  0  0  0  0  0  0
    2.0827    5.1584    3.6931 H   0  0  0  1  0  0  0  0  0  0  0  0
    2.8957    3.6159    3.8104 H   0  0  0  1  0  0  0  0  0  0  0  0
   -4.1392    3.2984    1.5955 F   0  0  0  1  0  0  0  0  0  0  0  0
   -3.3303    4.3096    1.2252 C   0  0  0  1  0  0  0  0  0  0  0  0
   -1.9735    4.0909    1.0783 C   0  0  0  1  0  0  0  0  0  0  0  0
   -1.1416    5.1304    0.6920 C   0  0  0  1  0  0  0  0  0  0  0  0
   -1.6685    6.3867    0.4589 C   0  0  0  1  0  0  0  0  0  0  0  0
   -3.0292    6.6061    0.6062 C   0  0  0  1  0  0  0  0  0  0  0  0
   -3.8584    5.5697    0.9914 C   0  0  0  1  0  0  0  0  0  0  0  0
   -1.3970    2.7193    1.3387 C   0  0  0  1  0  0  0  0  0  0  0  0
   -0.1213    4.9649    0.5776 H   0  0  0  1  0  0  0  0  0  0  0  0
   -1.0439    7.1676    0.1730 H   0  0  0  1  0  0  0  0  0  0  0  0
   -3.4261    7.5505    0.4269 H   0  0  0  1  0  0  0  0  0  0  0  0
   -4.8787    5.7352    1.1058 H   0  0  0  1  0  0  0  0  0  0  0  0
   -2.1456    1.9876    1.1170 H   0  0  0  1  0  0  0  0  0  0  0  0
   -0.5552    2.5757    0.6941 H   0  0  0  1  0  0  0  0  0  0  0  0
  1  4  1  0  0  0  0
  2  4  1  0  0  0  0
  2  5  2  0  0  0  0
  2  6  1  0  0  0  0
  3  4  1  0  0  0  0
  3  7  1  0  0  0  0
  3  8  1  0  0  0  0
  4 26  1  0  0  0  0
  6  9  1  0  0  0  0
  6 12  1  0  0  0  0
  8 10  1  0  0  0  0
  8 11  2  0  0  0  0
  9 13  1  0  0  0  0
  9 14  1  0  0  0  0
  9 15  1  0  0  0  0
 10 16  1  0  0  0  0
 10 17  1  0  0  0  0
 10 18  1  0  0  0  0
 19 20  1  0  0  0  0
 20 21  4  0  0  0  0
 20 25  4  0  0  0  0
 21 22  4  0  0  0  0
 21 26  1  0  0  0  0
 22 23  4  0  0  0  0
 22 27  1  0  0  0  0
 23 24  4  0  0  0  0
 23 28  1  0  0  0  0
 24 25  4  0  0  0  0
 24 29  1  0  0  0  0
 25 30  1  0  0  0  0
 26 31  1  0  0  0  0
 26 32  1  0  0  0  0
M  END
> <BCLConfClusterSize>
1

> <ConfClashScore>
0 

> <ConfOneFourInteractionScore>
-0.967579 

> <ConfScore>
0.14634 

> <ConfScorePBest>
0.00319147 

> <ConfTolerance>
0.662823 

> <RosettaParamsInstructions>
M  ROOT 3
M  POLY_N_BB 3
M  POLY_CA_BB 4
M  POLY_C_BB 2
M  POLY_O_BB 5
M  POLY_IGNORE 9 10 11 12 13 14 15 16 17 18 
M  POLY_UPPER 6
M  POLY_LOWER 8
M  POLY_CHG 0
M  POLY_PROPERTIES ALPHA_AA L_AA PROTEIN AROMATIC POLYMER 
M  END

$$$$



 32 32  0  0  0  0  0  0  0  0999 V2000
    0.2450    2.8631    0.0013 H   0  0  0  1  0  0  0  0  0  0  0  0
   -0.1000    0.8064    0.3577 C   0  0  0  1  0  0  0  0  0  0  0  0
   -1.4151    2.2754   -1.0810 N   0  0  0  1  0  0  0  0  0  0  0  0
   -0.6042    2.2239    0.1249 C   0  0  0  1  0  0  0  0  0  0  0  0
    1.0065    0.5881    0.8491 O   0  0  0  1  0  0  0  0  0  0  0  0
   -0.9649   -0.1397   -0.0189 N   0  0  0  1  0  0  0  0  0  0  0  0
   -2.2099    1.7076   -1.1604 H   0  0  0  1  0  0  0  0  0  0  0  0
   -1.0775    3.0987   -2.0852 C   0  0  0  1  0  0  0  0  0  0  0  0
   -0.6355   -1.5565    0.0261 C   0  0  0  1  0  0  0  0  0  0  0  0
   -1.8570    2.9204   -3.3736 C   0  0  0  1  0  0  0  0  0  0  0  0
   -0.1962    3.9484   -1.9859 O   0  0  0  1  0  0  0  0  0  0  0  0
   -1.8520    0.1297   -0.3366 H   0  0  0  1  0  0  0  0  0  0  0  0
    0.2010   -1.7082    0.6759 H   0  0  0  1  0  0  0  0  0  0  0  0
   -0.3887   -1.8965   -0.9579 H   0  0  0  1  0  0  0  0  0  0  0  0
   -1.4766   -2.1065    0.3936 H   0  0  0  1  0  0  0  0  0  0  0  0
   -1.3007    3.3355   -4.1879 H   0  0  0  1  0  0  0  0  0  0  0  0
   -2.7986    3.4221   -3.2927 H   0  0  0  1  0  0  0  0  0  0  0  0
   -2.0217    1.8779   -3.5491 H   0  0  0  1  0  0  0  0  0  0  0  0
   -4.1392    3.2983    1.5955 F   0  0  0  1  0  0  0  0  0  0  0  0
   -3.3303    4.3095    1.2252 C   0  0  0  1  0  0  0  0  0  0  0  0
   -1.9735    4.0910    1.0783 C   0  0  0  1  0  0  0  0  0  0  0  0
   -1.1417    5.1304    0.6920 C   0  0  0  1  0  0  0  0  0  0  0  0
   -1.6684    6.3867    0.4589 C   0  0  0  1  0  0  0  0  0  0  0  0
   -3.0292    6.6061    0.6062 C   0  0  0  1  0  0  0  0  0  0  0  0
   -3.8585    5.5697    0.9914 C   0  0  0  1  0  0  0  0  0  0  0  0
   -1.3970    2.7194    1.3387 C   0  0  0  1  0  0  0  0  0  0  0  0
   -0.1213    4.9649    0.5776 H   0  0  0  1  0  0  0  0  0  0  0  0
   -1.0438    7.1675    0.1730 H   0  0  0  1  0  0  0  0  0  0  0  0
   -3.4261    7.5506    0.4269 H   0  0  0  1  0  0  0  0  0  0  0  0
   -4.8788    5.7352    1.1058 H   0  0  0  1  0  0  0  0  0  0  0  0
   -0.7464    2.7675    2.1868 H   0  0  0  1  0  0  0  0  0  0  0  0
   -2.1952    2.0356    1.5392 H   0  0  0  1  0  0  0  0  0  0  0  0
  1  4  1  0  0  0  0
  2  4  1  0  0  0  0
  2  5  2  0  0  0  0
  2  6  1  0  0  0  0
  3  4  1  0  0  0  0
  3  7  1  0  0  0  0
  3  8  1  0  0  0  0
  4 26  1  0  0  0  0
  6  9  1  0  0  0  0
  6 12  1  0  0  0  0
  8 10  1  0  0  0  0
  8 11  2  0  0  0  0
  9 13  1  0  0  0  0
  9 14  1  0  0  0  0
  9 15  1  0  0  0  0
 10 16  1  0  0  0  0
 10 17  1  0  0  0  0
 10 18  1  0  0  0  0
 19 20  1  0  0  0  0
 20 21  4  0  0  0  0
 20 25  4  0  0  0  0
 21 22  4  0  0  0  0
 21 26  1  0  0  0  0
 22 23  4  0  0  0  0
 22 27  1  0  0  0  0
 23 24  4  0  0  0  0
 23 28  1  0  0  0  0
 24 25  4  0  0  0  0
 24 29  1  0  0  0  0
 25 30  1  0  0  0  0
 26 31  1  0  0  0  0
 26 32  1  0  0  0  0
M  END
> <BCLConfClusterSize>
1

> <ConfClashScore>
0 

> <ConfOneFourInteractionScore>
-0.946346 

> <ConfScore>
0.146468 

> <ConfScorePBest>
0.00316299 

> <ConfTolerance>
0.86732 

> <RosettaParamsInstructions>
M  ROOT 3
M  POLY_N_BB 3
M  POLY_CA_BB 4
M  POLY_C_BB 2
M  POLY_O_BB 5
M  POLY_IGNORE 9 10 11 12 13 14 15 16 17 18 
M  POLY_UPPER 6
M  POLY_LOWER 8
M  POLY_CHG 0
M  POLY_PROPERTIES ALPHA_AA L_AA PROTEIN AROMATIC POLYMER 
M  END

$$$$



 32 32  0  0  0  0  0  0  0  0999 V2000
   -0.9728    2.6427   -0.7306 H   0  0  0  1  0  0  0  0  0  0  0  0
    0.0382    1.1161    0.1379 C   0  0  0  1  0  0  0  0  0  0  0  0
   -2.3002    1.1275   -0.3498 N   0  0  0  1  0  0  0  0  0  0  0  0
   -1.1481    1.9249    0.0434 C   0  0  0  1  0  0  0  0  0  0  0  0
    1.0955    1.5672    0.4645 O   0  0  0  1  0  0  0  0  0  0  0  0
   -0.0403   -0.1995   -0.1514 N   0  0  0  1  0  0  0  0  0  0  0  0
   -2.7928    0.6359    0.3401 H   0  0  0  1  0  0  0  0  0  0  0  0
   -2.7096    1.0423   -1.6188 C   0  0  0  1  0  0  0  0  0  0  0  0
    1.1153   -1.0813   -0.0808 C   0  0  0  1  0  0  0  0  0  0  0  0
   -3.8535    0.0816   -1.8787 C   0  0  0  1  0  0  0  0  0  0  0  0
   -2.2040    1.6927   -2.5297 O   0  0  0  1  0  0  0  0  0  0  0  0
   -0.9056   -0.5743   -0.4182 H   0  0  0  1  0  0  0  0  0  0  0  0
    1.9638   -0.5309    0.2684 H   0  0  0  1  0  0  0  0  0  0  0  0
    1.3223   -1.4761   -1.0536 H   0  0  0  1  0  0  0  0  0  0  0  0
    0.9094   -1.8853    0.5945 H   0  0  0  1  0  0  0  0  0  0  0  0
   -4.1706   -0.3547   -0.9546 H   0  0  0  1  0  0  0  0  0  0  0  0
   -3.5266   -0.6904   -2.5436 H   0  0  0  1  0  0  0  0  0  0  0  0
   -4.6707    0.6118   -2.3214 H   0  0  0  1  0  0  0  0  0  0  0  0
   -4.1397    3.3020    1.6037 F   0  0  0  1  0  0  0  0  0  0  0  0
   -3.3318    4.3115    1.2268 C   0  0  0  1  0  0  0  0  0  0  0  0
   -1.9715    4.0914    1.0765 C   0  0  0  1  0  0  0  0  0  0  0  0
   -1.1417    5.1287    0.6949 C   0  0  0  1  0  0  0  0  0  0  0  0
   -1.6704    6.3879    0.4572 C   0  0  0  1  0  0  0  0  0  0  0  0
   -3.0268    6.6072    0.6071 C   0  0  0  1  0  0  0  0  0  0  0  0
   -3.8592    5.5669    0.9899 C   0  0  0  1  0  0  0  0  0  0  0  0
   -1.3961    2.7179    1.3298 C   0  0  0  1  0  0  0  0  0  0  0  0
   -0.1206    4.9645    0.5860 H   0  0  0  1  0  0  0  0  0  0  0  0
   -1.0466    7.1674    0.1662 H   0  0  0  1  0  0  0  0  0  0  0  0
   -3.4229    7.5529    0.4327 H   0  0  0  1  0  0  0  0  0  0  0  0
   -4.8803    5.7311    1.0988 H   0  0  0  1  0  0  0  0  0  0  0  0
   -0.4657    2.8285    1.8465 H   0  0  0  1  0  0  0  0  0  0  0  0
   -2.0813    2.1691    1.9414 H   0  0  0  1  0  0  0  0  0  0  0  0
  1  4  1  0  0  0  0
  2  4  1  0  0  0  0
  2  5  2  0  0  0  0
  2  6  1  0  0  0  0
  3  4  1  0  0  0  0
  3  7  1  0  0  0  0
  3  8  1  0  0  0  0
  4 26  1  0  0  0  0
  6  9  1  0  0  0  0
  6 12  1  0  0  0  0
  8 10  1  0  0  0  0
  8 11  2  0  0  0  0
  9 13  1  0  0  0  0
  9 14  1  0  0  0  0
  9 15  1  0  0  0  0
 10 16  1  0  0  0  0
 10 17  1  0  0  0  0
 10 18  1  0  0  0  0
 19 20  1  0  0  0  0
 20 21  4  0  0  0  0
 20 25  4  0  0  0  0
 21 22  4  0  0  0  0
 21 26  1  0  0  0  0
 22 23  4  0  0  0  0
 22 27  1  0  0  0  0
 23 24  4  0  0  0  0
 23 28  1  0  0  0  0
 24 25  4  0  0  0  0
 24 29  1  0  0  0  0
 25 30  1  0  0  0  0
 26 31  1  0  0  0  0
 26 32  1  0  0  0  0
M  END
> <BCLConfClusterSize>
1

> <ConfClashScore>
0 

> <ConfOneFourInteractionScore>
-0.948834 

> <ConfScore>
0.147318 

> <ConfScorePBest>
0.00313451 

> <ConfTolerance>
0.905921 

> <RosettaParamsInstructions>
M  ROOT 3
M  POLY_N_BB 3
M  POLY_CA_BB 4
M  POLY_C_BB 2
M  POLY_O_BB 5
M  POLY_IGNORE 9 10 11 12 13 14 15 16 17 18 
M  POLY_UPPER 6
M  POLY_LOWER 8
M  POLY_CHG 0
M  POLY_PROPERTIES ALPHA_AA L_AA PROTEIN AROMATIC POLYMER 
M  END

$$$$



 32 32  0  0  0  0  0  0  0  0999 V2000
   -1.3877    3.3423    3.3595 H   0  0  0  1  0  0  0  0  0  0  0  0
   -1.9558    1.3167    3.3451 C   0  0  0  1  0  0  0  0  0  0  0  0
    0.2911    2.1779    3.0937 N   0  0  0  1  0  0  0  0  0  0  0  0
   -1.1101    2.4607    2.8205 C   0  0  0  1  0  0  0  0  0  0  0  0
   -3.1240    1.4997    3.6850 O   0  0  0  1  0  0  0  0  0  0  0  0
   -1.3948    0.1069    3.4268 N   0  0  0  1  0  0  0  0  0  0  0  0
    0.9064    2.1585    2.3313 H   0  0  0  1  0  0  0  0  0  0  0  0
    0.8009    1.9432    4.3038 C   0  0  0  1  0  0  0  0  0  0  0  0
   -2.1382   -1.0672    3.8590 C   0  0  0  1  0  0  0  0  0  0  0  0
    2.2748    1.5892    4.3403 C   0  0  0  1  0  0  0  0  0  0  0  0
    0.1335    2.0051    5.3355 O   0  0  0  1  0  0  0  0  0  0  0  0
   -0.4498    0.0066    3.1872 H   0  0  0  1  0  0  0  0  0  0  0  0
   -2.5373   -0.8971    4.8371 H   0  0  0  1  0  0  0  0  0  0  0  0
   -1.4845   -1.9140    3.8831 H   0  0  0  1  0  0  0  0  0  0  0  0
   -2.9392   -1.2537    3.1746 H   0  0  0  1  0  0  0  0  0  0  0  0
    2.8113    2.2238    3.6662 H   0  0  0  1  0  0  0  0  0  0  0  0
    2.4036    0.5682    4.0473 H   0  0  0  1  0  0  0  0  0  0  0  0
    2.6498    1.7259    5.3331 H   0  0  0  1  0  0  0  0  0  0  0  0
   -4.1392    3.2983    1.5955 F   0  0  0  1  0  0  0  0  0  0  0  0
   -3.3303    4.3095    1.2252 C   0  0  0  1  0  0  0  0  0  0  0  0
   -1.9735    4.0910    1.0783 C   0  0  0  1  0  0  0  0  0  0  0  0
   -1.1417    5.1304    0.6920 C   0  0  0  1  0  0  0  0  0  0  0  0
   -1.6684    6.3867    0.4589 C   0  0  0  1  0  0  0  0  0  0  0  0
   -3.0292    6.6061    0.6062 C   0  0  0  1  0  0  0  0  0  0  0  0
   -3.8585    5.5697    0.9914 C   0  0  0  1  0  0  0  0  0  0  0  0
   -1.3970    2.7194    1.3387 C   0  0  0  1  0  0  0  0  0  0  0  0
   -0.1213    4.9649    0.5776 H   0  0  0  1  0  0  0  0  0  0  0  0
   -1.0438    7.1675    0.1730 H   0  0  0  1  0  0  0  0  0  0  0  0
   -3.4261    7.5506    0.4269 H   0  0  0  1  0  0  0  0  0  0  0  0
   -4.8788    5.7352    1.1058 H   0  0  0  1  0  0  0  0  0  0  0  0
   -2.0950    1.9855    0.9938 H   0  0  0  1  0  0  0  0  0  0  0  0
   -0.4813    2.6256    0.7931 H   0  0  0  1  0  0  0  0  0  0  0  0
  1  4  1  0  0  0  0
  2  4  1  0  0  0  0
  2  5  2  0  0  0  0
  2  6  1  0  0  0  0
  3  4  1  0  0  0  0
  3  7  1  0  0  0  0
  3  8  1  0  0  0  0
  4 26  1  0  0  0  0
  6  9  1  0  0  0  0
  6 12  1  0  0  0  0
  8 10  1  0  0  0  0
  8 11  2  0  0  0  0
  9 13  1  0  0  0  0
  9 14  1  0  0  0  0
  9 15  1  0  0  0  0
 10 16  1  0  0  0  0
 10 17  1  0  0  0  0
 10 18  1  0  0  0  0
 19 20  1  0  0  0  0
 20 21  4  0  0  0  0
 20 25  4  0  0  0  0
 21 22  4  0  0  0  0
 21 26  1  0  0  0  0
 22 23  4  0  0  0  0
 22 27  1  0  0  0  0
 23 24  4  0  0  0  0
 23 28  1  0  0  0  0
 24 25  4  0  0  0  0
 24 29  1  0  0  0  0
 25 30  1  0  0  0  0
 26 31  1  0  0  0  0
 26 32  1  0  0  0  0
M  END
> <BCLConfClusterSize>
1

> <ConfClashScore>
0 

> <ConfOneFourInteractionScore>
-0.948834 

> <ConfScore>
0.156144 

> <ConfScorePBest>
0.00310603 

> <ConfTolerance>
0.972567 

> <RosettaParamsInstructions>
M  ROOT 3
M  POLY_N_BB 3
M  POLY_CA_BB 4
M  POLY_C_BB 2
M  POLY_O_BB 5
M  POLY_IGNORE 9 10 11 12 13 14 15 16 17 18 
M  POLY_UPPER 6
M  POLY_LOWER 8
M  POLY_CHG 0
M  POLY_PROPERTIES ALPHA_AA L_AA PROTEIN AROMATIC POLYMER 
M  END

$$$$



 32 32  0  0  0  0  0  0  0  0999 V2000
   -0.1802    2.6696   -0.4006 H   0  0  0  1  0  0  0  0  0  0  0  0
   -0.2353    0.7144    0.3921 C   0  0  0  1  0  0  0  0  0  0  0  0
   -2.0038    1.8171   -0.8701 N   0  0  0  1  0  0  0  0  0  0  0  0
   -0.9062    2.0332    0.0606 C   0  0  0  1  0  0  0  0  0  0  0  0
    0.2027    0.5612    1.5315 O   0  0  0  1  0  0  0  0  0  0  0  0
   -0.1539   -0.2180   -0.5752 N   0  0  0  1  0  0  0  0  0  0  0  0
   -2.0518    2.3662   -1.6805 H   0  0  0  1  0  0  0  0  0  0  0  0
   -2.9700    0.8754   -0.6535 C   0  0  0  1  0  0  0  0  0  0  0  0
    0.5061   -1.4764   -0.2608 C   0  0  0  1  0  0  0  0  0  0  0  0
   -3.9691    0.7604   -1.7882 C   0  0  0  1  0  0  0  0  0  0  0  0
   -3.0027    0.2059    0.3625 O   0  0  0  1  0  0  0  0  0  0  0  0
   -0.5285   -0.0542   -1.4658 H   0  0  0  1  0  0  0  0  0  0  0  0
    0.2673   -1.7642    0.7417 H   0  0  0  1  0  0  0  0  0  0  0  0
    1.5652   -1.3565   -0.3545 H   0  0  0  1  0  0  0  0  0  0  0  0
    0.1710   -2.2336   -0.9384 H   0  0  0  1  0  0  0  0  0  0  0  0
   -3.4750    0.9449   -2.7192 H   0  0  0  1  0  0  0  0  0  0  0  0
   -4.7494    1.4795   -1.6503 H   0  0  0  1  0  0  0  0  0  0  0  0
   -4.3880   -0.2241   -1.7960 H   0  0  0  1  0  0  0  0  0  0  0  0
   -4.1397    3.3019    1.6037 F   0  0  0  1  0  0  0  0  0  0  0  0
   -3.3319    4.3114    1.2268 C   0  0  0  1  0  0  0  0  0  0  0  0
   -1.9715    4.0915    1.0765 C   0  0  0  1  0  0  0  0  0  0  0  0
   -1.1416    5.1287    0.6948 C   0  0  0  1  0  0  0  0  0  0  0  0
   -1.6705    6.3877    0.4572 C   0  0  0  1  0  0  0  0  0  0  0  0
   -3.0268    6.6073    0.6071 C   0  0  0  1  0  0  0  0  0  0  0  0
   -3.8591    5.5669    0.9899 C   0  0  0  1  0  0  0  0  0  0  0  0
   -1.3961    2.7181    1.3297 C   0  0  0  1  0  0  0  0  0  0  0  0
   -0.1204    4.9645    0.5860 H   0  0  0  1  0  0  0  0  0  0  0  0
   -1.0466    7.1673    0.1662 H   0  0  0  1  0  0  0  0  0  0  0  0
   -3.4230    7.5530    0.4327 H   0  0  0  1  0  0  0  0  0  0  0  0
   -4.8802    5.7310    1.0988 H   0  0  0  1  0  0  0  0  0  0  0  0
   -0.5718    2.8134    2.0052 H   0  0  0  1  0  0  0  0  0  0  0  0
   -2.1541    2.1081    1.7750 H   0  0  0  1  0  0  0  0  0  0  0  0
  1  4  1  0  0  0  0
  2  4  1  0  0  0  0
  2  5  2  0  0  0  0
  2  6  1  0  0  0  0
  3  4  1  0  0  0  0
  3  7  1  0  0  0  0
  3  8  1  0  0  0  0
  4 26  1  0  0  0  0
  6  9  1  0  0  0  0
  6 12  1  0  0  0  0
  8 10  1  0  0  0  0
  8 11  2  0  0  0  0
  9 13  1  0  0  0  0
  9 14  1  0  0  0  0
  9 15  1  0  0  0  0
 10 16  1  0  0  0  0
 10 17  1  0  0  0  0
 10 18  1  0  0  0  0
 19 20  1  0  0  0  0
 20 21  4  0  0  0  0
 20 25  4  0  0  0  0
 21 22  4  0  0  0  0
 21 26  1  0  0  0  0
 22 23  4  0  0  0  0
 22 27  1  0  0  0  0
 23 24  4  0  0  0  0
 23 28  1  0  0  0  0
 24 25  4  0  0  0  0
 24 29  1  0  0  0  0
 25 30  1  0  0  0  0
 26 31  1  0  0  0  0
 26 32  1  0  0  0  0
M  END
> <BCLConfClusterSize>
1

> <ConfClashScore>
0 

> <ConfOneFourInteractionScore>
-0.957364 

> <ConfScore>
0.158189 

> <ConfScorePBest>
0.00307755 

> <ConfTolerance>
0.493444 

> <RosettaParamsInstructions>
M  ROOT 3
M  POLY_N_BB 3
M  POLY_CA_BB 4
M  POLY_C_BB 2
M  POLY_O_BB 5
M  POLY_IGNORE 9 10 11 12 13 14 15 16 17 18 
M  POLY_UPPER 6
M  POLY_LOWER 8
M  POLY_CHG 0
M  POLY_PROPERTIES ALPHA_AA L_AA PROTEIN AROMATIC POLYMER 
M  END

$$$$



 32 32  0  0  0  0  0  0  0  0999 V2000
   -1.8056    1.3453   -0.2145 H   0  0  0  1  0  0  0  0  0  0  0  0
   -0.7396    2.9469   -1.0826 C   0  0  0  1  0  0  0  0  0  0  0  0
    0.1774    1.1761    0.3449 N   0  0  0  1  0  0  0  0  0  0  0  0
   -0.9969    1.9883    0.0638 C   0  0  0  1  0  0  0  0  0  0  0  0
   -1.6369    3.2711   -1.8559 O   0  0  0  1  0  0  0  0  0  0  0  0
    0.5175    3.4062   -1.1877 N   0  0  0  1  0  0  0  0  0  0  0  0
    0.5795    1.1638    1.2385 H   0  0  0  1  0  0  0  0  0  0  0  0
    0.6955    0.4422   -0.6574 C   0  0  0  1  0  0  0  0  0  0  0  0
    0.9136    4.3594   -2.2135 C   0  0  0  1  0  0  0  0  0  0  0  0
    1.8314   -0.5017   -0.3336 C   0  0  0  1  0  0  0  0  0  0  0  0
    0.2596    0.5349   -1.8041 O   0  0  0  1  0  0  0  0  0  0  0  0
    1.1918    3.0886   -0.5515 H   0  0  0  1  0  0  0  0  0  0  0  0
    0.7277    5.3547   -1.8672 H   0  0  0  1  0  0  0  0  0  0  0  0
    0.3479    4.1804   -3.1039 H   0  0  0  1  0  0  0  0  0  0  0  0
    1.9564    4.2441   -2.4236 H   0  0  0  1  0  0  0  0  0  0  0  0
    1.4956   -1.2375    0.3671 H   0  0  0  1  0  0  0  0  0  0  0  0
    2.6436    0.0504    0.0911 H   0  0  0  1  0  0  0  0  0  0  0  0
    2.1587   -0.9861   -1.2297 H   0  0  0  1  0  0  0  0  0  0  0  0
   -4.1390    3.2984    1.5955 F   0  0  0  1  0  0  0  0  0  0  0  0
   -3.3302    4.3097    1.2252 C   0  0  0  1  0  0  0  0  0  0  0  0
   -1.9734    4.0909    1.0783 C   0  0  0  1  0  0  0  0  0  0  0  0
   -1.1418    5.1304    0.6920 C   0  0  0  1  0  0  0  0  0  0  0  0
   -1.6684    6.3868    0.4589 C   0  0  0  1  0  0  0  0  0  0  0  0
   -3.0292    6.6061    0.6062 C   0  0  0  1  0  0  0  0  0  0  0  0
   -3.8585    5.5697    0.9914 C   0  0  0  1  0  0  0  0  0  0  0  0
   -1.3970    2.7192    1.3387 C   0  0  0  1  0  0  0  0  0  0  0  0
   -0.1214    4.9648    0.5776 H   0  0  0  1  0  0  0  0  0  0  0  0
   -1.0437    7.1676    0.1729 H   0  0  0  1  0  0  0  0  0  0  0  0
   -3.4261    7.5505    0.4269 H   0  0  0  1  0  0  0  0  0  0  0  0
   -4.8789    5.7352    1.1058 H   0  0  0  1  0  0  0  0  0  0  0  0
   -0.5299    2.8259    1.9565 H   0  0  0  1  0  0  0  0  0  0  0  0
   -2.1309    2.1331    1.8513 H   0  0  0  1  0  0  0  0  0  0  0  0
  1  4  1  0  0  0  0
  2  4  1  0  0  0  0
  2  5  2  0  0  0  0
  2  6  1  0  0  0  0
  3  4  1  0  0  0  0
  3  7  1  0  0  0  0
  3  8  1  0  0  0  0
  4 26  1  0  0  0  0
  6  9  1  0  0  0  0
  6 12  1  0  0  0  0
  8 10  1  0  0  0  0
  8 11  2  0  0  0  0
  9 13  1  0  0  0  0
  9 14  1  0  0  0  0
  9 15  1  0  0  0  0
 10 16  1  0  0  0  0
 10 17  1  0  0  0  0
 10 18  1  0  0  0  0
 19 20  1  0  0  0  0
 20 21  4  0  0  0  0
 20 25  4  0  0  0  0
 21 22  4  0  0  0  0
 21 26  1  0  0  0  0
 22 23  4  0  0  0  0
 22 27  1  0  0  0  0
 23 24  4  0  0  0  0
 23 28  1  0  0  0  0
 24 25  4  0  0  0  0
 24 29  1  0  0  0  0
 25 30  1  0  0  0  0
 26 31  1  0  0  0  0
 26 32  1  0  0  0  0
M  END
> <BCLConfClusterSize>
1

> <ConfClashScore>
0 

> <ConfOneFourInteractionScore>
-0.942345 

> <ConfScore>
0.172338 

> <ConfScorePBest>
0.00304907 

> <ConfTolerance>
1.03185 

> <RosettaParamsInstructions>
M  ROOT 3
M  POLY_N_BB 3
M  POLY_CA_BB 4
M  POLY_C_BB 2
M  POLY_O_BB 5
M  POLY_IGNORE 9 10 11 12 13 14 15 16 17 18 
M  POLY_UPPER 6
M  POLY_LOWER 8
M  POLY_CHG 0
M  POLY_PROPERTIES ALPHA_AA L_AA PROTEIN AROMATIC POLYMER 
M  END

$$$$



 32 32  0  0  0  0  0  0  0  0999 V2000
   -1.1005    0.8072    0.5008 H   0  0  0  1  0  0  0  0  0  0  0  0
   -3.0208    1.4396   -0.1039 C   0  0  0  1  0  0  0  0  0  0  0  0
   -0.8285    2.2048   -0.9846 N   0  0  0  1  0  0  0  0  0  0  0  0
   -1.5476    1.7273    0.1870 C   0  0  0  1  0  0  0  0  0  0  0  0
   -3.6312    2.1145   -0.9165 O   0  0  0  1  0  0  0  0  0  0  0  0
   -3.6117    0.4942    0.6285 N   0  0  0  1  0  0  0  0  0  0  0  0
   -0.8082    3.1720   -1.1408 H   0  0  0  1  0  0  0  0  0  0  0  0
   -0.1925    1.4222   -1.8651 C   0  0  0  1  0  0  0  0  0  0  0  0
   -5.0355    0.2390    0.4802 C   0  0  0  1  0  0  0  0  0  0  0  0
    0.1962    2.0831   -3.1733 C   0  0  0  1  0  0  0  0  0  0  0  0
    0.0685    0.2403   -1.6446 O   0  0  0  1  0  0  0  0  0  0  0  0
   -3.0851   -0.0294    1.2680 H   0  0  0  1  0  0  0  0  0  0  0  0
   -5.2518   -0.7645    0.7820 H   0  0  0  1  0  0  0  0  0  0  0  0
   -5.3166    0.3716   -0.5437 H   0  0  0  1  0  0  0  0  0  0  0  0
   -5.5858    0.9220    1.0930 H   0  0  0  1  0  0  0  0  0  0  0  0
   -0.5849    1.9416   -3.8908 H   0  0  0  1  0  0  0  0  0  0  0  0
    1.1005    1.6438   -3.5396 H   0  0  0  1  0  0  0  0  0  0  0  0
    0.3472    3.1301   -3.0126 H   0  0  0  1  0  0  0  0  0  0  0  0
   -4.1398    3.3019    1.6037 F   0  0  0  1  0  0  0  0  0  0  0  0
   -3.3319    4.3114    1.2268 C   0  0  0  1  0  0  0  0  0  0  0  0
   -1.9715    4.0914    1.0765 C   0  0  0  1  0  0  0  0  0  0  0  0
   -1.1416    5.1287    0.6948 C   0  0  0  1  0  0  0  0  0  0  0  0
   -1.6705    6.3878    0.4572 C   0  0  0  1  0  0  0  0  0  0  0  0
   -3.0268    6.6073    0.6071 C   0  0  0  1  0  0  0  0  0  0  0  0
   -3.8590    5.5669    0.9899 C   0  0  0  1  0  0  0  0  0  0  0  0
   -1.3961    2.7180    1.3297 C   0  0  0  1  0  0  0  0  0  0  0  0
   -0.1204    4.9646    0.5860 H   0  0  0  1  0  0  0  0  0  0  0  0
   -1.0467    7.1673    0.1662 H   0  0  0  1  0  0  0  0  0  0  0  0
   -3.4230    7.5529    0.4327 H   0  0  0  1  0  0  0  0  0  0  0  0
   -4.8802    5.7311    1.0987 H   0  0  0  1  0  0  0  0  0  0  0  0
   -0.3516    2.8301    1.5331 H   0  0  0  1  0  0  0  0  0  0  0  0
   -1.8853    2.3085    2.1887 H   0  0  0  1  0  0  0  0  0  0  0  0
  1  4  1  0  0  0  0
  2  4  1  0  0  0  0
  2  5  2  0  0  0  0
  2  6  1  0  0  0  0
  3  4  1  0  0  0  0
  3  7  1  0  0  0  0
  3  8  1  0  0  0  0
  4 26  1  0  0  0  0
  6  9  1  0  0  0  0
  6 12  1  0  0  0  0
  8 10  1  0  0  0  0
  8 11  2  0  0  0  0
  9 13  1  0  0  0  0
  9 14  1  0  0  0  0
  9 15  1  0  0  0  0
 10 16  1  0  0  0  0
 10 17  1  0  0  0  0
 10 18  1  0  0  0  0
 19 20  1  0  0  0  0
 20 21  4  0  0  0  0
 20 25  4  0  0  0  0
 21 22  4  0  0  0  0
 21 26  1  0  0  0  0
 22 23  4  0  0  0  0
 22 27  1  0  0  0  0
 23 24  4  0  0  0  0
 23 28  1  0  0  0  0
 24 25  4  0  0  0  0
 24 29  1  0  0  0  0
 25 30  1  0  0  0  0
 26 31  1  0  0  0  0
 26 32  1  0  0  0  0
M  END
> <BCLConfClusterSize>
1

> <ConfClashScore>
0 

> <ConfOneFourInteractionScore>
-0.976093 

> <ConfScore>
0.188769 

> <ConfScorePBest>
0.00302059 

> <ConfTolerance>
0.791488 

> <RosettaParamsInstructions>
M  ROOT 3
M  POLY_N_BB 3
M  POLY_CA_BB 4
M  POLY_C_BB 2
M  POLY_O_BB 5
M  POLY_IGNORE 9 10 11 12 13 14 15 16 17 18 
M  POLY_UPPER 6
M  POLY_LOWER 8
M  POLY_CHG 0
M  POLY_PROPERTIES ALPHA_AA L_AA PROTEIN AROMATIC POLYMER 
M  END

$$$$



 32 32  0  0  0  0  0  0  0  0999 V2000
   -1.7537    2.2986   -0.7126 H   0  0  0  1  0  0  0  0  0  0  0  0
   -0.5647    0.7160    0.0010 C   0  0  0  1  0  0  0  0  0  0  0  0
   -2.9800    1.1217    0.4672 N   0  0  0  1  0  0  0  0  0  0  0  0
   -1.6745    1.7316    0.1913 C   0  0  0  1  0  0  0  0  0  0  0  0
   -0.6127   -0.3881    0.5178 O   0  0  0  1  0  0  0  0  0  0  0  0
    0.4407    1.1542   -0.7732 N   0  0  0  1  0  0  0  0  0  0  0  0
   -3.5396    1.4712    1.1919 H   0  0  0  1  0  0  0  0  0  0  0  0
   -3.4076    0.0909   -0.2673 C   0  0  0  1  0  0  0  0  0  0  0  0
    1.6343    0.3593   -1.0210 C   0  0  0  1  0  0  0  0  0  0  0  0
   -4.7880   -0.4346    0.0755 C   0  0  0  1  0  0  0  0  0  0  0  0
   -2.7382   -0.4130   -1.1682 O   0  0  0  1  0  0  0  0  0  0  0  0
    0.3684    2.0402   -1.1857 H   0  0  0  1  0  0  0  0  0  0  0  0
    2.2772    0.8820   -1.6980 H   0  0  0  1  0  0  0  0  0  0  0  0
    1.3541   -0.5804   -1.4492 H   0  0  0  1  0  0  0  0  0  0  0  0
    2.1490    0.1920   -0.0980 H   0  0  0  1  0  0  0  0  0  0  0  0
   -5.1215    0.0079    0.9909 H   0  0  0  1  0  0  0  0  0  0  0  0
   -4.7469   -1.4979    0.1878 H   0  0  0  1  0  0  0  0  0  0  0  0
   -5.4698   -0.1845   -0.7103 H   0  0  0  1  0  0  0  0  0  0  0  0
   -4.1397    3.3019    1.6037 F   0  0  0  1  0  0  0  0  0  0  0  0
   -3.3319    4.3114    1.2268 C   0  0  0  1  0  0  0  0  0  0  0  0
   -1.9715    4.0915    1.0765 C   0  0  0  1  0  0  0  0  0  0  0  0
   -1.1416    5.1287    0.6948 C   0  0  0  1  0  0  0  0  0  0  0  0
   -1.6705    6.3877    0.4572 C   0  0  0  1  0  0  0  0  0  0  0  0
   -3.0268    6.6073    0.6071 C   0  0  0  1  0  0  0  0  0  0  0  0
   -3.8591    5.5669    0.9899 C   0  0  0  1  0  0  0  0  0  0  0  0
   -1.3961    2.7181    1.3297 C   0  0  0  1  0  0  0  0  0  0  0  0
   -0.1204    4.9645    0.5860 H   0  0  0  1  0  0  0  0  0  0  0  0
   -1.0466    7.1673    0.1662 H   0  0  0  1  0  0  0  0  0  0  0  0
   -3.4230    7.5530    0.4327 H   0  0  0  1  0  0  0  0  0  0  0  0
   -4.8802    5.7310    1.0988 H   0  0  0  1  0  0  0  0  0  0  0  0
   -0.3368    2.8095    1.4498 H   0  0  0  1  0  0  0  0  0  0  0  0
   -1.8254    2.3296    2.2296 H   0  0  0  1  0  0  0  0  0  0  0  0
  1  4  1  0  0  0  0
  2  4  1  0  0  0  0
  2  5  2  0  0  0  0
  2  6  1  0  0  0  0
  3  4  1  0  0  0  0
  3  7  1  0  0  0  0
  3  8  1  0  0  0  0
  4 26  1  0  0  0  0
  6  9  1  0  0  0  0
  6 12  1  0  0  0  0
  8 10  1  0  0  0  0
  8 11  2  0  0  0  0
  9 13  1  0  0  0  0
  9 14  1  0  0  0  0
  9 15  1  0  0  0  0
 10 16  1  0  0  0  0
 10 17  1  0  0  0  0
 10 18  1  0  0  0  0
 19 20  1  0  0  0  0
 20 21  4  0  0  0  0
 20 25  4  0  0  0  0
 21 22  4  0  0  0  0
 21 26  1  0  0  0  0
 22 23  4  0  0  0  0
 22 27  1  0  0  0  0
 23 24  4  0  0  0  0
 23 28  1  0  0  0  0
 24 25  4  0  0  0  0
 24 29  1  0  0  0  0
 25 30  1  0  0  0  0
 26 31  1  0  0  0  0
 26 32  1  0  0  0  0
M  END
> <BCLConfClusterSize>
1

> <ConfClashScore>
0 

> <ConfOneFourInteractionScore>
-0.970447 

> <ConfScore>
0.190268 

> <ConfScorePBest>
0.00299211 

> <ConfTolerance>
0.783526 

> <RosettaParamsInstructions>
M  ROOT 3
M  POLY_N_BB 3
M  POLY_CA_BB 4
M  POLY_C_BB 2
M  POLY_O_BB 5
M  POLY_IGNORE 9 10 11 12 13 14 15 16 17 18 
M  POLY_UPPER 6
M  POLY_LOWER 8
M  POLY_CHG 0
M  POLY_PROPERTIES ALPHA_AA L_AA PROTEIN AROMATIC POLYMER 
M  END

$$$$



 32 32  0  0  0  0  0  0  0  0999 V2000
    0.2895    2.7174    0.0471 H   0  0  0  1  0  0  0  0  0  0  0  0
   -0.2707    0.7033    0.3596 C   0  0  0  1  0  0  0  0  0  0  0  0
   -1.3907    2.3154   -1.0995 N   0  0  0  1  0  0  0  0  0  0  0  0
   -0.6224    2.1649    0.1367 C   0  0  0  1  0  0  0  0  0  0  0  0
   -1.0358   -0.0538    0.9554 O   0  0  0  1  0  0  0  0  0  0  0  0
    0.9083    0.3089   -0.1298 N   0  0  0  1  0  0  0  0  0  0  0  0
   -2.3678    2.2802   -1.0328 H   0  0  0  1  0  0  0  0  0  0  0  0
   -0.8580    2.4982   -2.3180 C   0  0  0  1  0  0  0  0  0  0  0  0
    1.3761   -1.0646   -0.0181 C   0  0  0  1  0  0  0  0  0  0  0  0
   -1.8500    2.6914   -3.4484 C   0  0  0  1  0  0  0  0  0  0  0  0
    0.3549    2.5111   -2.5238 O   0  0  0  1  0  0  0  0  0  0  0  0
    1.4778    0.9674   -0.5796 H   0  0  0  1  0  0  0  0  0  0  0  0
    0.6515   -1.7247   -0.4473 H   0  0  0  1  0  0  0  0  0  0  0  0
    1.5155   -1.3109    1.0138 H   0  0  0  1  0  0  0  0  0  0  0  0
    2.3051   -1.1682   -0.5387 H   0  0  0  1  0  0  0  0  0  0  0  0
   -1.4317    3.3480   -4.1824 H   0  0  0  1  0  0  0  0  0  0  0  0
   -2.7522    3.1174   -3.0619 H   0  0  0  1  0  0  0  0  0  0  0  0
   -2.0662    1.7451   -3.8986 H   0  0  0  1  0  0  0  0  0  0  0  0
   -4.1397    3.3019    1.6037 F   0  0  0  1  0  0  0  0  0  0  0  0
   -3.3319    4.3114    1.2268 C   0  0  0  1  0  0  0  0  0  0  0  0
   -1.9715    4.0915    1.0765 C   0  0  0  1  0  0  0  0  0  0  0  0
   -1.1416    5.1287    0.6948 C   0  0  0  1  0  0  0  0  0  0  0  0
   -1.6705    6.3877    0.4572 C   0  0  0  1  0  0  0  0  0  0  0  0
   -3.0268    6.6073    0.6071 C   0  0  0  1  0  0  0  0  0  0  0  0
   -3.8591    5.5669    0.9899 C   0  0  0  1  0  0  0  0  0  0  0  0
   -1.3961    2.7181    1.3297 C   0  0  0  1  0  0  0  0  0  0  0  0
   -0.1204    4.9645    0.5860 H   0  0  0  1  0  0  0  0  0  0  0  0
   -1.0466    7.1673    0.1662 H   0  0  0  1  0  0  0  0  0  0  0  0
   -3.4230    7.5530    0.4327 H   0  0  0  1  0  0  0  0  0  0  0  0
   -4.8802    5.7310    1.0988 H   0  0  0  1  0  0  0  0  0  0  0  0
   -0.7338    2.7756    2.1681 H   0  0  0  1  0  0  0  0  0  0  0  0
   -2.1997    2.0483    1.5547 H   0  0  0  1  0  0  0  0  0  0  0  0
  1  4  1  0  0  0  0
  2  4  1  0  0  0  0
  2  5  2  0  0  0  0
  2  6  1  0  0  0  0
  3  4  1  0  0  0  0
  3  7  1  0  0  0  0
  3  8  1  0  0  0  0
  4 26  1  0  0  0  0
  6  9  1  0  0  0  0
  6 12  1  0  0  0  0
  8 10  1  0  0  0  0
  8 11  2  0  0  0  0
  9 13  1  0  0  0  0
  9 14  1  0  0  0  0
  9 15  1  0  0  0  0
 10 16  1  0  0  0  0
 10 17  1  0  0  0  0
 10 18  1  0  0  0  0
 19 20  1  0  0  0  0
 20 21  4  0  0  0  0
 20 25  4  0  0  0  0
 21 22  4  0  0  0  0
 21 26  1  0  0  0  0
 22 23  4  0  0  0  0
 22 27  1  0  0  0  0
 23 24  4  0  0  0  0
 23 28  1  0  0  0  0
 24 25  4  0  0  0  0
 24 29  1  0  0  0  0
 25 30  1  0  0  0  0
 26 31  1  0  0  0  0
 26 32  1  0  0  0  0
M  END
> <BCLConfClusterSize>
1

> <ConfClashScore>
0 

> <ConfOneFourInteractionScore>
-0.979134 

> <ConfScore>
0.195193 

> <ConfScorePBest>
0.00296363 

> <ConfTolerance>
0.85389 

> <RosettaParamsInstructions>
M  ROOT 3
M  POLY_N_BB 3
M  POLY_CA_BB 4
M  POLY_C_BB 2
M  POLY_O_BB 5
M  POLY_IGNORE 9 10 11 12 13 14 15 16 17 18 
M  POLY_UPPER 6
M  POLY_LOWER 8
M  POLY_CHG 0
M  POLY_PROPERTIES ALPHA_AA L_AA PROTEIN AROMATIC POLYMER 
M  END

$$$$



 32 32  0  0  0  0  0  0  0  0999 V2000
   -2.2785    2.5529    3.2304 H   0  0  0  1  0  0  0  0  0  0  0  0
   -1.0024    0.9120    3.0738 C   0  0  0  1  0  0  0  0  0  0  0  0
   -0.3935    3.2557    3.5581 N   0  0  0  1  0  0  0  0  0  0  0  0
   -1.3012    2.3818    2.8299 C   0  0  0  1  0  0  0  0  0  0  0  0
    0.1522    0.5013    3.1553 O   0  0  0  1  0  0  0  0  0  0  0  0
   -2.0731    0.1109    3.1914 N   0  0  0  1  0  0  0  0  0  0  0  0
   -0.7578    3.8417    4.2540 H   0  0  0  1  0  0  0  0  0  0  0  0
    0.9191    3.2869    3.3109 C   0  0  0  1  0  0  0  0  0  0  0  0
   -1.9529   -1.3096    3.4842 C   0  0  0  1  0  0  0  0  0  0  0  0
    1.7100    4.3261    4.0814 C   0  0  0  1  0  0  0  0  0  0  0  0
    1.4686    2.5289    2.5128 O   0  0  0  1  0  0  0  0  0  0  0  0
   -2.9669    0.4960    3.0761 H   0  0  0  1  0  0  0  0  0  0  0  0
   -1.2064   -1.7427    2.8516 H   0  0  0  1  0  0  0  0  0  0  0  0
   -2.8922   -1.7906    3.3080 H   0  0  0  1  0  0  0  0  0  0  0  0
   -1.6714   -1.4398    4.5083 H   0  0  0  1  0  0  0  0  0  0  0  0
    1.4188    4.3057    5.1108 H   0  0  0  1  0  0  0  0  0  0  0  0
    1.5144    5.2964    3.6748 H   0  0  0  1  0  0  0  0  0  0  0  0
    2.7548    4.1097    4.0022 H   0  0  0  1  0  0  0  0  0  0  0  0
   -4.1390    3.2984    1.5955 F   0  0  0  1  0  0  0  0  0  0  0  0
   -3.3302    4.3097    1.2252 C   0  0  0  1  0  0  0  0  0  0  0  0
   -1.9734    4.0909    1.0783 C   0  0  0  1  0  0  0  0  0  0  0  0
   -1.1418    5.1304    0.6920 C   0  0  0  1  0  0  0  0  0  0  0  0
   -1.6684    6.3868    0.4589 C   0  0  0  1  0  0  0  0  0  0  0  0
   -3.0292    6.6061    0.6062 C   0  0  0  1  0  0  0  0  0  0  0  0
   -3.8585    5.5697    0.9914 C   0  0  0  1  0  0  0  0  0  0  0  0
   -1.3970    2.7192    1.3387 C   0  0  0  1  0  0  0  0  0  0  0  0
   -0.1214    4.9648    0.5776 H   0  0  0  1  0  0  0  0  0  0  0  0
   -1.0437    7.1676    0.1729 H   0  0  0  1  0  0  0  0  0  0  0  0
   -3.4261    7.5505    0.4269 H   0  0  0  1  0  0  0  0  0  0  0  0
   -4.8789    5.7352    1.1058 H   0  0  0  1  0  0  0  0  0  0  0  0
   -2.0218    1.9916    0.8643 H   0  0  0  1  0  0  0  0  0  0  0  0
   -0.4149    2.6767    0.9161 H   0  0  0  1  0  0  0  0  0  0  0  0
  1  4  1  0  0  0  0
  2  4  1  0  0  0  0
  2  5  2  0  0  0  0
  2  6  1  0  0  0  0
  3  4  1  0  0  0  0
  3  7  1  0  0  0  0
  3  8  1  0  0  0  0
  4 26  1  0  0  0  0
  6  9  1  0  0  0  0
  6 12  1  0  0  0  0
  8 10  1  0  0  0  0
  8 11  2  0  0  0  0
  9 13  1  0  0  0  0
  9 14  1  0  0  0  0
  9 15  1  0  0  0  0
 10 16  1  0  0  0  0
 10 17  1  0  0  0  0
 10 18  1  0  0  0  0
 19 20  1  0  0  0  0
 20 21  4  0  0  0  0
 20 25  4  0  0  0  0
 21 22  4  0  0  0  0
 21 26  1  0  0  0  0
 22 23  4  0  0  0  0
 22 27  1  0  0  0  0
 23 24  4  0  0  0  0
 23 28  1  0  0  0  0
 24 25  4  0  0  0  0
 24 29  1  0  0  0  0
 25 30  1  0  0  0  0
 26 31  1  0  0  0  0
 26 32  1  0  0  0  0
M  END
> <BCLConfClusterSize>
1

> <ConfClashScore>
0 

> <ConfOneFourInteractionScore>
-0.984592 

> <ConfScore>
0.200864 

> <ConfScorePBest>
0.00293515 

> <ConfTolerance>
0.481792 

> <RosettaParamsInstructions>
M  ROOT 3
M  POLY_N_BB 3
M  POLY_CA_BB 4
M  POLY_C_BB 2
M  POLY_O_BB 5
M  POLY_IGNORE 9 10 11 12 13 14 15 16 17 18 
M  POLY_UPPER 6
M  POLY_LOWER 8
M  POLY_CHG 0
M  POLY_PROPERTIES ALPHA_AA L_AA PROTEIN AROMATIC POLYMER 
M  END

$$$$



 32 32  0  0  0  0  0  0  0  0999 V2000
   -0.7700    0.9999    0.3900 H   0  0  0  1  0  0  0  0  0  0  0  0
   -2.6861    1.4082   -0.3653 C   0  0  0  1  0  0  0  0  0  0  0  0
   -0.5329    2.5395   -0.9043 N   0  0  0  1  0  0  0  0  0  0  0  0
   -1.3042    1.8848    0.1133 C   0  0  0  1  0  0  0  0  0  0  0  0
   -3.5539    1.0607    0.4346 O   0  0  0  1  0  0  0  0  0  0  0  0
   -2.8709    1.3996   -1.6885 N   0  0  0  1  0  0  0  0  0  0  0  0
   -0.9855    3.0410   -1.6143 H   0  0  0  1  0  0  0  0  0  0  0  0
    0.8433    2.4646   -0.8854 C   0  0  0  1  0  0  0  0  0  0  0  0
   -4.1021    0.9199   -2.2983 C   0  0  0  1  0  0  0  0  0  0  0  0
    1.5528    3.1365   -2.0246 C   0  0  0  1  0  0  0  0  0  0  0  0
    1.4100    1.8796    0.0183 O   0  0  0  1  0  0  0  0  0  0  0  0
   -2.1524    1.7277   -2.2685 H   0  0  0  1  0  0  0  0  0  0  0  0
   -4.6093    0.2704   -1.6159 H   0  0  0  1  0  0  0  0  0  0  0  0
   -3.8705    0.3840   -3.1950 H   0  0  0  1  0  0  0  0  0  0  0  0
   -4.7319    1.7527   -2.5325 H   0  0  0  1  0  0  0  0  0  0  0  0
    2.6047    2.9574   -1.9457 H   0  0  0  1  0  0  0  0  0  0  0  0
    1.3669    4.1897   -1.9887 H   0  0  0  1  0  0  0  0  0  0  0  0
    1.1925    2.7416   -2.9515 H   0  0  0  1  0  0  0  0  0  0  0  0
   -4.1391    3.2985    1.5955 F   0  0  0  1  0  0  0  0  0  0  0  0
   -3.3302    4.3097    1.2252 C   0  0  0  1  0  0  0  0  0  0  0  0
   -1.9734    4.0909    1.0783 C   0  0  0  1  0  0  0  0  0  0  0  0
   -1.1417    5.1304    0.6920 C   0  0  0  1  0  0  0  0  0  0  0  0
   -1.6684    6.3868    0.4589 C   0  0  0  1  0  0  0  0  0  0  0  0
   -3.0292    6.6060    0.6062 C   0  0  0  1  0  0  0  0  0  0  0  0
   -3.8585    5.5697    0.9914 C   0  0  0  1  0  0  0  0  0  0  0  0
   -1.3970    2.7192    1.3387 C   0  0  0  1  0  0  0  0  0  0  0  0
   -0.1214    4.9649    0.5776 H   0  0  0  1  0  0  0  0  0  0  0  0
   -1.0438    7.1677    0.1729 H   0  0  0  1  0  0  0  0  0  0  0  0
   -3.4261    7.5504    0.4269 H   0  0  0  1  0  0  0  0  0  0  0  0
   -4.8789    5.7352    1.1058 H   0  0  0  1  0  0  0  0  0  0  0  0
   -0.4149    2.8345    1.7474 H   0  0  0  1  0  0  0  0  0  0  0  0
   -2.0217    2.2161    2.0468 H   0  0  0  1  0  0  0  0  0  0  0  0
  1  4  1  0  0  0  0
  2  4  1  0  0  0  0
  2  5  2  0  0  0  0
  2  6  1  0  0  0  0
  3  4  1  0  0  0  0
  3  7  1  0  0  0  0
  3  8  1  0  0  0  0
  4 26  1  0  0  0  0
  6  9  1  0  0  0  0
  6 12  1  0  0  0  0
  8 10  1  0  0  0  0
  8 11  2  0  0  0  0
  9 13  1  0  0  0  0
  9 14  1  0  0  0  0
  9 15  1  0  0  0  0
 10 16  1  0  0  0  0
 10 17  1  0  0  0  0
 10 18  1  0  0  0  0
 19 20  1  0  0  0  0
 20 21  4  0  0  0  0
 20 25  4  0  0  0  0
 21 22  4  0  0  0  0
 21 26  1  0  0  0  0
 22 23  4  0  0  0  0
 22 27  1  0  0  0  0
 23 24  4  0  0  0  0
 23 28  1  0  0  0  0
 24 25  4  0  0  0  0
 24 29  1  0  0  0  0
 25 30  1  0  0  0  0
 26 31  1  0  0  0  0
 26 32  1  0  0  0  0
M  END
> <BCLConfClusterSize>
1

> <ConfClashScore>
0 

> <ConfOneFourInteractionScore>
-0.951253 

> <ConfScore>
0.201725 

> <ConfScorePBest>
0.00290666 

> <ConfTolerance>
0.438654 

> <RosettaParamsInstructions>
M  ROOT 3
M  POLY_N_BB 3
M  POLY_CA_BB 4
M  POLY_C_BB 2
M  POLY_O_BB 5
M  POLY_IGNORE 9 10 11 12 13 14 15 16 17 18 
M  POLY_UPPER 6
M  POLY_LOWER 8
M  POLY_CHG 0
M  POLY_PROPERTIES ALPHA_AA L_AA PROTEIN AROMATIC POLYMER 
M  END

$$$$



 32 32  0  0  0  0  0  0  0  0999 V2000
   -1.6142    2.7400    3.4406 H   0  0  0  1  0  0  0  0  0  0  0  0
   -0.3207    1.1438    2.9556 C   0  0  0  1  0  0  0  0  0  0  0  0
    0.2472    3.5132    2.9800 N   0  0  0  1  0  0  0  0  0  0  0  0
   -0.8245    2.5579    2.7419 C   0  0  0  1  0  0  0  0  0  0  0  0
   -0.8146    0.4127    3.8130 O   0  0  0  1  0  0  0  0  0  0  0  0
    0.6802    0.7577    2.1592 N   0  0  0  1  0  0  0  0  0  0  0  0
    0.7349    3.8249    2.1891 H   0  0  0  1  0  0  0  0  0  0  0  0
    0.6412    4.0128    4.1524 C   0  0  0  1  0  0  0  0  0  0  0  0
    1.3360   -0.5332    2.3050 C   0  0  0  1  0  0  0  0  0  0  0  0
    1.9134    4.8373    4.1229 C   0  0  0  1  0  0  0  0  0  0  0  0
    0.0259    3.8275    5.1990 O   0  0  0  1  0  0  0  0  0  0  0  0
    0.9833    1.3650    1.4523 H   0  0  0  1  0  0  0  0  0  0  0  0
    0.8037   -1.2700    1.7404 H   0  0  0  1  0  0  0  0  0  0  0  0
    1.3454   -0.8136    3.3376 H   0  0  0  1  0  0  0  0  0  0  0  0
    2.3410   -0.4652    1.9442 H   0  0  0  1  0  0  0  0  0  0  0  0
    2.0551    5.2406    3.1420 H   0  0  0  1  0  0  0  0  0  0  0  0
    2.7468    4.2159    4.3766 H   0  0  0  1  0  0  0  0  0  0  0  0
    1.8362    5.6372    4.8294 H   0  0  0  1  0  0  0  0  0  0  0  0
   -4.1397    3.3020    1.6037 F   0  0  0  1  0  0  0  0  0  0  0  0
   -3.3318    4.3115    1.2268 C   0  0  0  1  0  0  0  0  0  0  0  0
   -1.9715    4.0914    1.0765 C   0  0  0  1  0  0  0  0  0  0  0  0
   -1.1417    5.1287    0.6949 C   0  0  0  1  0  0  0  0  0  0  0  0
   -1.6704    6.3879    0.4572 C   0  0  0  1  0  0  0  0  0  0  0  0
   -3.0268    6.6072    0.6071 C   0  0  0  1  0  0  0  0  0  0  0  0
   -3.8592    5.5669    0.9899 C   0  0  0  1  0  0  0  0  0  0  0  0
   -1.3961    2.7179    1.3298 C   0  0  0  1  0  0  0  0  0  0  0  0
   -0.1206    4.9645    0.5860 H   0  0  0  1  0  0  0  0  0  0  0  0
   -1.0466    7.1674    0.1662 H   0  0  0  1  0  0  0  0  0  0  0  0
   -3.4229    7.5529    0.4327 H   0  0  0  1  0  0  0  0  0  0  0  0
   -4.8803    5.7311    1.0988 H   0  0  0  1  0  0  0  0  0  0  0  0
   -2.1712    1.9933    1.1919 H   0  0  0  1  0  0  0  0  0  0  0  0
   -0.6123    2.5414    0.6231 H   0  0  0  1  0  0  0  0  0  0  0  0
  1  4  1  0  0  0  0
  2  4  1  0  0  0  0
  2  5  2  0  0  0  0
  2  6  1  0  0  0  0
  3  4  1  0  0  0  0
  3  7  1  0  0  0  0
  3  8  1  0  0  0  0
  4 26  1  0  0  0  0
  6  9  1  0  0  0  0
  6 12  1  0  0  0  0
  8 10  1  0  0  0  0
  8 11  2  0  0  0  0
  9 13  1  0  0  0  0
  9 14  1  0  0  0  0
  9 15  1  0  0  0  0
 10 16  1  0  0  0  0
 10 17  1  0  0  0  0
 10 18  1  0  0  0  0
 19 20  1  0  0  0  0
 20 21  4  0  0  0  0
 20 25  4  0  0  0  0
 21 22  4  0  0  0  0
 21 26  1  0  0  0  0
 22 23  4  0  0  0  0
 22 27  1  0  0  0  0
 23 24  4  0  0  0  0
 23 28  1  0  0  0  0
 24 25  4  0  0  0  0
 24 29  1  0  0  0  0
 25 30  1  0  0  0  0
 26 31  1  0  0  0  0
 26 32  1  0  0  0  0
M  END
> <BCLConfClusterSize>
1

> <ConfClashScore>
0 

> <ConfOneFourInteractionScore>
-0.960318 

> <ConfScore>
0.203763 

> <ConfScorePBest>
0.00287818 

> <ConfTolerance>
0.81972 

> <RosettaParamsInstructions>
M  ROOT 3
M  POLY_N_BB 3
M  POLY_CA_BB 4
M  POLY_C_BB 2
M  POLY_O_BB 5
M  POLY_IGNORE 9 10 11 12 13 14 15 16 17 18 
M  POLY_UPPER 6
M  POLY_LOWER 8
M  POLY_CHG 0
M  POLY_PROPERTIES ALPHA_AA L_AA PROTEIN AROMATIC POLYMER 
M  END

$$$$



 32 32  0  0  0  0  0  0  0  0999 V2000
   -0.6096    2.4321   -0.6136 H   0  0  0  1  0  0  0  0  0  0  0  0
   -0.5743    0.5551    0.3668 C   0  0  0  1  0  0  0  0  0  0  0  0
   -2.5325    1.6730   -0.5773 N   0  0  0  1  0  0  0  0  0  0  0  0
   -1.2423    1.8920    0.0594 C   0  0  0  1  0  0  0  0  0  0  0  0
   -1.2103   -0.4313    0.6997 O   0  0  0  1  0  0  0  0  0  0  0  0
    0.7601    0.4552    0.2690 N   0  0  0  1  0  0  0  0  0  0  0  0
   -2.6083    1.8829   -1.5316 H   0  0  0  1  0  0  0  0  0  0  0  0
   -3.6321    1.2027    0.0472 C   0  0  0  1  0  0  0  0  0  0  0  0
    1.4340   -0.7654    0.6859 C   0  0  0  1  0  0  0  0  0  0  0  0
   -4.8131    0.7947   -0.8041 C   0  0  0  1  0  0  0  0  0  0  0  0
   -3.6750    1.1076    1.2730 O   0  0  0  1  0  0  0  0  0  0  0  0
    1.2821    1.2058   -0.0840 H   0  0  0  1  0  0  0  0  0  0  0  0
    0.7924   -1.3236    1.3352 H   0  0  0  1  0  0  0  0  0  0  0  0
    2.3358   -0.5152    1.2048 H   0  0  0  1  0  0  0  0  0  0  0  0
    1.6694   -1.3547   -0.1756 H   0  0  0  1  0  0  0  0  0  0  0  0
   -4.4829    0.5990   -1.8029 H   0  0  0  1  0  0  0  0  0  0  0  0
   -5.5342    1.5851   -0.8155 H   0  0  0  1  0  0  0  0  0  0  0  0
   -5.2581   -0.0888   -0.3963 H   0  0  0  1  0  0  0  0  0  0  0  0
   -4.1398    3.3019    1.6037 F   0  0  0  1  0  0  0  0  0  0  0  0
   -3.3319    4.3114    1.2268 C   0  0  0  1  0  0  0  0  0  0  0  0
   -1.9715    4.0914    1.0765 C   0  0  0  1  0  0  0  0  0  0  0  0
   -1.1416    5.1287    0.6948 C   0  0  0  1  0  0  0  0  0  0  0  0
   -1.6705    6.3878    0.4572 C   0  0  0  1  0  0  0  0  0  0  0  0
   -3.0268    6.6073    0.6071 C   0  0  0  1  0  0  0  0  0  0  0  0
   -3.8590    5.5669    0.9899 C   0  0  0  1  0  0  0  0  0  0  0  0
   -1.3961    2.7180    1.3297 C   0  0  0  1  0  0  0  0  0  0  0  0
   -0.1204    4.9646    0.5860 H   0  0  0  1  0  0  0  0  0  0  0  0
   -1.0467    7.1673    0.1662 H   0  0  0  1  0  0  0  0  0  0  0  0
   -3.4230    7.5529    0.4327 H   0  0  0  1  0  0  0  0  0  0  0  0
   -4.8802    5.7311    1.0987 H   0  0  0  1  0  0  0  0  0  0  0  0
   -0.4328    2.8304    1.7816 H   0  0  0  1  0  0  0  0  0  0  0  0
   -2.0460    2.1947    1.9996 H   0  0  0  1  0  0  0  0  0  0  0  0
  1  4  1  0  0  0  0
  2  4  1  0  0  0  0
  2  5  2  0  0  0  0
  2  6  1  0  0  0  0
  3  4  1  0  0  0  0
  3  7  1  0  0  0  0
  3  8  1  0  0  0  0
  4 26  1  0  0  0  0
  6  9  1  0  0  0  0
  6 12  1  0  0  0  0
  8 10  1  0  0  0  0
  8 11  2  0  0  0  0
  9 13  1  0  0  0  0
  9 14  1  0  0  0  0
  9 15  1  0  0  0  0
 10 16  1  0  0  0  0
 10 17  1  0  0  0  0
 10 18  1  0  0  0  0
 19 20  1  0  0  0  0
 20 21  4  0  0  0  0
 20 25  4  0  0  0  0
 21 22  4  0  0  0  0
 21 26  1  0  0  0  0
 22 23  4  0  0  0  0
 22 27  1  0  0  0  0
 23 24  4  0  0  0  0
 23 28  1  0  0  0  0
 24 25  4  0  0  0  0
 24 29  1  0  0  0  0
 25 30  1  0  0  0  0
 26 31  1  0  0  0  0
 26 32  1  0  0  0  0
M  END
> <BCLConfClusterSize>
1

> <ConfClashScore>
0 

> <ConfOneFourInteractionScore>
-0.984199 

> <ConfScore>
0.206265 

> <ConfScorePBest>
0.0028497 

> <ConfTolerance>
0.485437 

> <RosettaParamsInstructions>
M  ROOT 3
M  POLY_N_BB 3
M  POLY_CA_BB 4
M  POLY_C_BB 2
M  POLY_O_BB 5
M  POLY_IGNORE 9 10 11 12 13 14 15 16 17 18 
M  POLY_UPPER 6
M  POLY_LOWER 8
M  POLY_CHG 0
M  POLY_PROPERTIES ALPHA_AA L_AA PROTEIN AROMATIC POLYMER 
M  END

$$$$



 32 32  0  0  0  0  0  0  0  0999 V2000
   -2.2304    2.1864    3.2074 H   0  0  0  1  0  0  0  0  0  0  0  0
   -0.3942    1.1564    2.9652 C   0  0  0  1  0  0  0  0  0  0  0  0
   -0.6722    3.5229    3.5169 N   0  0  0  1  0  0  0  0  0  0  0  0
   -1.2581    2.3929    2.8113 C   0  0  0  1  0  0  0  0  0  0  0  0
    0.1958    0.6746    1.9990 O   0  0  0  1  0  0  0  0  0  0  0  0
   -0.2938    0.6086    4.1766 N   0  0  0  1  0  0  0  0  0  0  0  0
    0.1457    3.9296    3.1619 H   0  0  0  1  0  0  0  0  0  0  0  0
   -1.2159    4.0300    4.6427 C   0  0  0  1  0  0  0  0  0  0  0  0
    0.4862   -0.5838    4.4725 C   0  0  0  1  0  0  0  0  0  0  0  0
   -0.5635    5.2505    5.2622 C   0  0  0  1  0  0  0  0  0  0  0  0
   -2.2116    3.5191    5.1536 O   0  0  0  1  0  0  0  0  0  0  0  0
   -0.7760    1.0363    4.9149 H   0  0  0  1  0  0  0  0  0  0  0  0
   -0.0092   -1.4433    4.0714 H   0  0  0  1  0  0  0  0  0  0  0  0
    0.5846   -0.6915    5.5325 H   0  0  0  1  0  0  0  0  0  0  0  0
    1.4567   -0.4935    4.0311 H   0  0  0  1  0  0  0  0  0  0  0  0
   -1.1735    5.6141    6.0626 H   0  0  0  1  0  0  0  0  0  0  0  0
   -0.4576    6.0137    4.5197 H   0  0  0  1  0  0  0  0  0  0  0  0
    0.4012    4.9851    5.6416 H   0  0  0  1  0  0  0  0  0  0  0  0
   -4.1398    3.3019    1.6037 F   0  0  0  1  0  0  0  0  0  0  0  0
   -3.3319    4.3114    1.2268 C   0  0  0  1  0  0  0  0  0  0  0  0
   -1.9716    4.0914    1.0765 C   0  0  0  1  0  0  0  0  0  0  0  0
   -1.1416    5.1287    0.6948 C   0  0  0  1  0  0  0  0  0  0  0  0
   -1.6705    6.3878    0.4572 C   0  0  0  1  0  0  0  0  0  0  0  0
   -3.0268    6.6073    0.6071 C   0  0  0  1  0  0  0  0  0  0  0  0
   -3.8590    5.5669    0.9899 C   0  0  0  1  0  0  0  0  0  0  0  0
   -1.3962    2.7180    1.3297 C   0  0  0  1  0  0  0  0  0  0  0  0
   -0.1204    4.9645    0.5860 H   0  0  0  1  0  0  0  0  0  0  0  0
   -1.0467    7.1674    0.1662 H   0  0  0  1  0  0  0  0  0  0  0  0
   -3.4230    7.5529    0.4327 H   0  0  0  1  0  0  0  0  0  0  0  0
   -4.8802    5.7310    1.0987 H   0  0  0  1  0  0  0  0  0  0  0  0
   -2.0397    1.9910    0.8801 H   0  0  0  1  0  0  0  0  0  0  0  0
   -0.4277    2.6659    0.8779 H   0  0  0  1  0  0  0  0  0  0  0  0
  1  4  1  0  0  0  0
  2  4  1  0  0  0  0
  2  5  2  0  0  0  0
  2  6  1  0  0  0  0
  3  4  1  0  0  0  0
  3  7  1  0  0  0  0
  3  8  1  0  0  0  0
  4 26  1  0  0  0  0
  6  9  1  0  0  0  0
  6 12  1  0  0  0  0
  8 10  1  0  0  0  0
  8 11  2  0  0  0  0
  9 13  1  0  0  0  0
  9 14  1  0  0  0  0
  9 15  1  0  0  0  0
 10 16  1  0  0  0  0
 10 17  1  0  0  0  0
 10 18  1  0  0  0  0
 19 20  1  0  0  0  0
 20 21  4  0  0  0  0
 20 25  4  0  0  0  0
 21 22  4  0  0  0  0
 21 26  1  0  0  0  0
 22 23  4  0  0  0  0
 22 27  1  0  0  0  0
 23 24  4  0  0  0  0
 23 28  1  0  0  0  0
 24 25  4  0  0  0  0
 24 29  1  0  0  0  0
 25 30  1  0  0  0  0
 26 31  1  0  0  0  0
 26 32  1  0  0  0  0
M  END
> <BCLConfClusterSize>
1

> <ConfClashScore>
0 

> <ConfOneFourInteractionScore>
-0.961569 

> <ConfScore>
0.210239 

> <ConfScorePBest>
0.00282122 

> <ConfTolerance>
0.85584 

> <RosettaParamsInstructions>
M  ROOT 3
M  POLY_N_BB 3
M  POLY_CA_BB 4
M  POLY_C_BB 2
M  POLY_O_BB 5
M  POLY_IGNORE 9 10 11 12 13 14 15 16 17 18 
M  POLY_UPPER 6
M  POLY_LOWER 8
M  POLY_CHG 0
M  POLY_PROPERTIES ALPHA_AA L_AA PROTEIN AROMATIC POLYMER 
M  END

$$$$



 32 32  0  0  0  0  0  0  0  0999 V2000
   -0.8982    1.3472    2.8557 H   0  0  0  1  0  0  0  0  0  0  0  0
   -0.9153    3.2496    3.7384 C   0  0  0  1  0  0  0  0  0  0  0  0
   -2.8693    1.8834    3.0961 N   0  0  0  1  0  0  0  0  0  0  0  0
   -1.4927    2.2335    2.7791 C   0  0  0  1  0  0  0  0  0  0  0  0
   -1.6469    3.9037    4.4804 O   0  0  0  1  0  0  0  0  0  0  0  0
    0.4103    3.4147    3.7555 N   0  0  0  1  0  0  0  0  0  0  0  0
   -3.4107    2.4825    3.6515 H   0  0  0  1  0  0  0  0  0  0  0  0
   -3.4016    0.7359    2.6270 C   0  0  0  1  0  0  0  0  0  0  0  0
    1.0538    4.4573    4.5409 C   0  0  0  1  0  0  0  0  0  0  0  0
   -4.7696    0.3246    3.1355 C   0  0  0  1  0  0  0  0  0  0  0  0
   -2.7970    0.0419    1.8107 O   0  0  0  1  0  0  0  0  0  0  0  0
    0.9689    2.8129    3.2204 H   0  0  0  1  0  0  0  0  0  0  0  0
    1.7987    4.9439    3.9466 H   0  0  0  1  0  0  0  0  0  0  0  0
    1.5143    4.0213    5.4027 H   0  0  0  1  0  0  0  0  0  0  0  0
    0.3215    5.1732    4.8510 H   0  0  0  1  0  0  0  0  0  0  0  0
   -4.7426   -0.6993    3.4452 H   0  0  0  1  0  0  0  0  0  0  0  0
   -5.4905    0.4414    2.3534 H   0  0  0  1  0  0  0  0  0  0  0  0
   -5.0412    0.9413    3.9666 H   0  0  0  1  0  0  0  0  0  0  0  0
   -4.1391    3.2985    1.5955 F   0  0  0  1  0  0  0  0  0  0  0  0
   -3.3302    4.3097    1.2252 C   0  0  0  1  0  0  0  0  0  0  0  0
   -1.9734    4.0909    1.0783 C   0  0  0  1  0  0  0  0  0  0  0  0
   -1.1417    5.1304    0.6920 C   0  0  0  1  0  0  0  0  0  0  0  0
   -1.6684    6.3868    0.4589 C   0  0  0  1  0  0  0  0  0  0  0  0
   -3.0292    6.6060    0.6062 C   0  0  0  1  0  0  0  0  0  0  0  0
   -3.8585    5.5697    0.9914 C   0  0  0  1  0  0  0  0  0  0  0  0
   -1.3970    2.7192    1.3387 C   0  0  0  1  0  0  0  0  0  0  0  0
   -0.1214    4.9649    0.5776 H   0  0  0  1  0  0  0  0  0  0  0  0
   -1.0438    7.1677    0.1729 H   0  0  0  1  0  0  0  0  0  0  0  0
   -3.4261    7.5504    0.4269 H   0  0  0  1  0  0  0  0  0  0  0  0
   -4.8789    5.7352    1.1058 H   0  0  0  1  0  0  0  0  0  0  0  0
   -1.9176    2.0193    0.7191 H   0  0  0  1  0  0  0  0  0  0  0  0
   -0.3628    2.7384    1.0649 H   0  0  0  1  0  0  0  0  0  0  0  0
  1  4  1  0  0  0  0
  2  4  1  0  0  0  0
  2  5  2  0  0  0  0
  2  6  1  0  0  0  0
  3  4  1  0  0  0  0
  3  7  1  0  0  0  0
  3  8  1  0  0  0  0
  4 26  1  0  0  0  0
  6  9  1  0  0  0  0
  6 12  1  0  0  0  0
  8 10  1  0  0  0  0
  8 11  2  0  0  0  0
  9 13  1  0  0  0  0
  9 14  1  0  0  0  0
  9 15  1  0  0  0  0
 10 16  1  0  0  0  0
 10 17  1  0  0  0  0
 10 18  1  0  0  0  0
 19 20  1  0  0  0  0
 20 21  4  0  0  0  0
 20 25  4  0  0  0  0
 21 22  4  0  0  0  0
 21 26  1  0  0  0  0
 22 23  4  0  0  0  0
 22 27  1  0  0  0  0
 23 24  4  0  0  0  0
 23 28  1  0  0  0  0
 24 25  4  0  0  0  0
 24 29  1  0  0  0  0
 25 30  1  0  0  0  0
 26 31  1  0  0  0  0
 26 32  1  0  0  0  0
M  END
> <BCLConfClusterSize>
1

> <ConfClashScore>
0 

> <ConfOneFourInteractionScore>
-0.987258 

> <ConfScore>
0.215929 

> <ConfScorePBest>
0.00279274 

> <ConfTolerance>
0.903255 

> <RosettaParamsInstructions>
M  ROOT 3
M  POLY_N_BB 3
M  POLY_CA_BB 4
M  POLY_C_BB 2
M  POLY_O_BB 5
M  POLY_IGNORE 9 10 11 12 13 14 15 16 17 18 
M  POLY_UPPER 6
M  POLY_LOWER 8
M  POLY_CHG 0
M  POLY_PROPERTIES ALPHA_AA L_AA PROTEIN AROMATIC POLYMER 
M  END

$$$$



 32 32  0  0  0  0  0  0  0  0999 V2000
   -0.7317    1.5287    2.9320 H   0  0  0  1  0  0  0  0  0  0  0  0
   -0.3310    3.5247    3.4491 C   0  0  0  1  0  0  0  0  0  0  0  0
   -2.5250    2.3840    3.4642 N   0  0  0  1  0  0  0  0  0  0  0  0
   -1.2232    2.4725    2.8197 C   0  0  0  1  0  0  0  0  0  0  0  0
    0.8834    3.4082    3.4478 O   0  0  0  1  0  0  0  0  0  0  0  0
   -0.9641    4.5740    3.9972 N   0  0  0  1  0  0  0  0  0  0  0  0
   -2.8804    3.1738    3.9228 H   0  0  0  1  0  0  0  0  0  0  0  0
   -3.2586    1.2540    3.4524 C   0  0  0  1  0  0  0  0  0  0  0  0
   -0.2463    5.6782    4.6162 C   0  0  0  1  0  0  0  0  0  0  0  0
   -4.5152    1.3277    4.3217 C   0  0  0  1  0  0  0  0  0  0  0  0
   -2.9742    0.2412    2.8146 O   0  0  0  1  0  0  0  0  0  0  0  0
   -1.9436    4.5972    3.9799 H   0  0  0  1  0  0  0  0  0  0  0  0
    0.6745    5.3201    5.0271 H   0  0  0  1  0  0  0  0  0  0  0  0
   -0.8449    6.0995    5.3967 H   0  0  0  1  0  0  0  0  0  0  0  0
   -0.0407    6.4270    3.8801 H   0  0  0  1  0  0  0  0  0  0  0  0
   -4.3450    1.9962    5.1396 H   0  0  0  1  0  0  0  0  0  0  0  0
   -4.7449    0.3533    4.6995 H   0  0  0  1  0  0  0  0  0  0  0  0
   -5.3348    1.6851    3.7339 H   0  0  0  1  0  0  0  0  0  0  0  0
   -4.1397    3.3020    1.6037 F   0  0  0  1  0  0  0  0  0  0  0  0
   -3.3318    4.3115    1.2268 C   0  0  0  1  0  0  0  0  0  0  0  0
   -1.9715    4.0914    1.0765 C   0  0  0  1  0  0  0  0  0  0  0  0
   -1.1417    5.1287    0.6949 C   0  0  0  1  0  0  0  0  0  0  0  0
   -1.6704    6.3879    0.4572 C   0  0  0  1  0  0  0  0  0  0  0  0
   -3.0268    6.6072    0.6071 C   0  0  0  1  0  0  0  0  0  0  0  0
   -3.8592    5.5669    0.9899 C   0  0  0  1  0  0  0  0  0  0  0  0
   -1.3961    2.7179    1.3298 C   0  0  0  1  0  0  0  0  0  0  0  0
   -0.1206    4.9645    0.5860 H   0  0  0  1  0  0  0  0  0  0  0  0
   -1.0466    7.1674    0.1662 H   0  0  0  1  0  0  0  0  0  0  0  0
   -3.4229    7.5529    0.4327 H   0  0  0  1  0  0  0  0  0  0  0  0
   -4.8803    5.7311    1.0988 H   0  0  0  1  0  0  0  0  0  0  0  0
   -2.0586    1.9804    0.9272 H   0  0  0  1  0  0  0  0  0  0  0  0
   -0.4432    2.6427    0.8489 H   0  0  0  1  0  0  0  0  0  0  0  0
  1  4  1  0  0  0  0
  2  4  1  0  0  0  0
  2  5  2  0  0  0  0
  2  6  1  0  0  0  0
  3  4  1  0  0  0  0
  3  7  1  0  0  0  0
  3  8  1  0  0  0  0
  4 26  1  0  0  0  0
  6  9  1  0  0  0  0
  6 12  1  0  0  0  0
  8 10  1  0  0  0  0
  8 11  2  0  0  0  0
  9 13  1  0  0  0  0
  9 14  1  0  0  0  0
  9 15  1  0  0  0  0
 10 16  1  0  0  0  0
 10 17  1  0  0  0  0
 10 18  1  0  0  0  0
 19 20  1  0  0  0  0
 20 21  4  0  0  0  0
 20 25  4  0  0  0  0
 21 22  4  0  0  0  0
 21 26  1  0  0  0  0
 22 23  4  0  0  0  0
 22 27  1  0  0  0  0
 23 24  4  0  0  0  0
 23 28  1  0  0  0  0
 24 25  4  0  0  0  0
 24 29  1  0  0  0  0
 25 30  1  0  0  0  0
 26 31  1  0  0  0  0
 26 32  1  0  0  0  0
M  END
> <BCLConfClusterSize>
1

> <ConfClashScore>
0 

> <ConfOneFourInteractionScore>
-0.96177 

> <ConfScore>
0.218389 

> <ConfScorePBest>
0.00276426 

> <ConfTolerance>
0.481855 

> <RosettaParamsInstructions>
M  ROOT 3
M  POLY_N_BB 3
M  POLY_CA_BB 4
M  POLY_C_BB 2
M  POLY_O_BB 5
M  POLY_IGNORE 9 10 11 12 13 14 15 16 17 18 
M  POLY_UPPER 6
M  POLY_LOWER 8
M  POLY_CHG 0
M  POLY_PROPERTIES ALPHA_AA L_AA PROTEIN AROMATIC POLYMER 
M  END

$$$$



 32 32  0  0  0  0  0  0  0  0999 V2000
   -0.4591    2.3667   -0.5418 H   0  0  0  1  0  0  0  0  0  0  0  0
   -0.7573    0.5057    0.4271 C   0  0  0  1  0  0  0  0  0  0  0  0
   -2.4651    1.8553   -0.6862 N   0  0  0  1  0  0  0  0  0  0  0  0
   -1.2156    1.9026    0.0560 C   0  0  0  1  0  0  0  0  0  0  0  0
   -1.2900   -0.4912   -0.0590 O   0  0  0  1  0  0  0  0  0  0  0  0
    0.2469    0.4386    1.3026 N   0  0  0  1  0  0  0  0  0  0  0  0
   -3.2591    1.5250   -0.2161 H   0  0  0  1  0  0  0  0  0  0  0  0
   -2.6156    2.2366   -1.9897 C   0  0  0  1  0  0  0  0  0  0  0  0
    0.5919   -0.7929    1.9970 C   0  0  0  1  0  0  0  0  0  0  0  0
   -4.0483    2.1626   -2.4809 C   0  0  0  1  0  0  0  0  0  0  0  0
   -1.6729    2.5972   -2.6699 O   0  0  0  1  0  0  0  0  0  0  0  0
    0.7705    1.2468    1.4845 H   0  0  0  1  0  0  0  0  0  0  0  0
    0.4255   -1.6274    1.3482 H   0  0  0  1  0  0  0  0  0  0  0  0
   -0.0187   -0.8929    2.8700 H   0  0  0  1  0  0  0  0  0  0  0  0
    1.6224   -0.7639    2.2833 H   0  0  0  1  0  0  0  0  0  0  0  0
   -4.1486    2.7375   -3.3777 H   0  0  0  1  0  0  0  0  0  0  0  0
   -4.7029    2.5549   -1.7309 H   0  0  0  1  0  0  0  0  0  0  0  0
   -4.3044    1.1430   -2.6806 H   0  0  0  1  0  0  0  0  0  0  0  0
   -4.1398    3.3019    1.6037 F   0  0  0  1  0  0  0  0  0  0  0  0
   -3.3319    4.3114    1.2268 C   0  0  0  1  0  0  0  0  0  0  0  0
   -1.9715    4.0914    1.0765 C   0  0  0  1  0  0  0  0  0  0  0  0
   -1.1416    5.1287    0.6948 C   0  0  0  1  0  0  0  0  0  0  0  0
   -1.6705    6.3878    0.4572 C   0  0  0  1  0  0  0  0  0  0  0  0
   -3.0268    6.6073    0.6071 C   0  0  0  1  0  0  0  0  0  0  0  0
   -3.8590    5.5669    0.9899 C   0  0  0  1  0  0  0  0  0  0  0  0
   -1.3961    2.7180    1.3297 C   0  0  0  1  0  0  0  0  0  0  0  0
   -0.1204    4.9646    0.5860 H   0  0  0  1  0  0  0  0  0  0  0  0
   -1.0467    7.1673    0.1662 H   0  0  0  1  0  0  0  0  0  0  0  0
   -3.4230    7.5529    0.4327 H   0  0  0  1  0  0  0  0  0  0  0  0
   -4.8802    5.7311    1.0987 H   0  0  0  1  0  0  0  0  0  0  0  0
   -0.4418    2.8301    1.8005 H   0  0  0  1  0  0  0  0  0  0  0  0
   -2.0566    2.1872    1.9831 H   0  0  0  1  0  0  0  0  0  0  0  0
  1  4  1  0  0  0  0
  2  4  1  0  0  0  0
  2  5  2  0  0  0  0
  2  6  1  0  0  0  0
  3  4  1  0  0  0  0
  3  7  1  0  0  0  0
  3  8  1  0  0  0  0
  4 26  1  0  0  0  0
  6  9  1  0  0  0  0
  6 12  1  0  0  0  0
  8 10  1  0  0  0  0
  8 11  2  0  0  0  0
  9 13  1  0  0  0  0
  9 14  1  0  0  0  0
  9 15  1  0  0  0  0
 10 16  1  0  0  0  0
 10 17  1  0  0  0  0
 10 18  1  0  0  0  0
 19 20  1  0  0  0  0
 20 21  4  0  0  0  0
 20 25  4  0  0  0  0
 21 22  4  0  0  0  0
 21 26  1  0  0  0  0
 22 23  4  0  0  0  0
 22 27  1  0  0  0  0
 23 24  4  0  0  0  0
 23 28  1  0  0  0  0
 24 25  4  0  0  0  0
 24 29  1  0  0  0  0
 25 30  1  0  0  0  0
 26 31  1  0  0  0  0
 26 32  1  0  0  0  0
M  END
> <BCLConfClusterSize>
1

> <ConfClashScore>
0 

> <ConfOneFourInteractionScore>
-0.987695 

> <ConfScore>
0.223258 

> <ConfScorePBest>
0.00273578 

> <ConfTolerance>
0.908999 

> <RosettaParamsInstructions>
M  ROOT 3
M  POLY_N_BB 3
M  POLY_CA_BB 4
M  POLY_C_BB 2
M  POLY_O_BB 5
M  POLY_IGNORE 9 10 11 12 13 14 15 16 17 18 
M  POLY_UPPER 6
M  POLY_LOWER 8
M  POLY_CHG 0
M  POLY_PROPERTIES ALPHA_AA L_AA PROTEIN AROMATIC POLYMER 
M  END

$$$$



 32 32  0  0  0  0  0  0  0  0999 V2000
   -0.5376    1.6031    2.8877 H   0  0  0  1  0  0  0  0  0  0  0  0
    0.4393    3.4573    2.8222 C   0  0  0  1  0  0  0  0  0  0  0  0
   -1.8317    2.9449    3.7423 N   0  0  0  1  0  0  0  0  0  0  0  0
   -0.8276    2.6223    2.7395 C   0  0  0  1  0  0  0  0  0  0  0  0
    1.0111    3.8522    1.8070 O   0  0  0  1  0  0  0  0  0  0  0  0
    0.8781    3.7257    4.0553 N   0  0  0  1  0  0  0  0  0  0  0  0
   -1.8239    3.8362    4.1497 H   0  0  0  1  0  0  0  0  0  0  0  0
   -2.7677    2.0646    4.1285 C   0  0  0  1  0  0  0  0  0  0  0  0
    2.0815    4.5067    4.2994 C   0  0  0  1  0  0  0  0  0  0  0  0
   -3.6997    2.4637    5.2560 C   0  0  0  1  0  0  0  0  0  0  0  0
   -2.8687    0.9672    3.5863 O   0  0  0  1  0  0  0  0  0  0  0  0
    0.3718    3.3848    4.8221 H   0  0  0  1  0  0  0  0  0  0  0  0
    2.8866    4.1148    3.7135 H   0  0  0  1  0  0  0  0  0  0  0  0
    2.3369    4.4530    5.3371 H   0  0  0  1  0  0  0  0  0  0  0  0
    1.9060    5.5265    4.0270 H   0  0  0  1  0  0  0  0  0  0  0  0
   -3.1260    2.6918    6.1298 H   0  0  0  1  0  0  0  0  0  0  0  0
   -4.3678    1.6555    5.4691 H   0  0  0  1  0  0  0  0  0  0  0  0
   -4.2631    3.3254    4.9645 H   0  0  0  1  0  0  0  0  0  0  0  0
   -4.1397    3.3019    1.6037 F   0  0  0  1  0  0  0  0  0  0  0  0
   -3.3319    4.3114    1.2268 C   0  0  0  1  0  0  0  0  0  0  0  0
   -1.9715    4.0915    1.0765 C   0  0  0  1  0  0  0  0  0  0  0  0
   -1.1416    5.1287    0.6948 C   0  0  0  1  0  0  0  0  0  0  0  0
   -1.6705    6.3877    0.4572 C   0  0  0  1  0  0  0  0  0  0  0  0
   -3.0268    6.6073    0.6071 C   0  0  0  1  0  0  0  0  0  0  0  0
   -3.8591    5.5669    0.9899 C   0  0  0  1  0  0  0  0  0  0  0  0
   -1.3961    2.7181    1.3297 C   0  0  0  1  0  0  0  0  0  0  0  0
   -0.1204    4.9645    0.5860 H   0  0  0  1  0  0  0  0  0  0  0  0
   -1.0466    7.1673    0.1662 H   0  0  0  1  0  0  0  0  0  0  0  0
   -3.4230    7.5530    0.4327 H   0  0  0  1  0  0  0  0  0  0  0  0
   -4.8802    5.7310    1.0988 H   0  0  0  1  0  0  0  0  0  0  0  0
   -2.1686    1.9870    1.2126 H   0  0  0  1  0  0  0  0  0  0  0  0
   -0.6153    2.5290    0.6230 H   0  0  0  1  0  0  0  0  0  0  0  0
  1  4  1  0  0  0  0
  2  4  1  0  0  0  0
  2  5  2  0  0  0  0
  2  6  1  0  0  0  0
  3  4  1  0  0  0  0
  3  7  1  0  0  0  0
  3  8  1  0  0  0  0
  4 26  1  0  0  0  0
  6  9  1  0  0  0  0
  6 12  1  0  0  0  0
  8 10  1  0  0  0  0
  8 11  2  0  0  0  0
  9 13  1  0  0  0  0
  9 14  1  0  0  0  0
  9 15  1  0  0  0  0
 10 16  1  0  0  0  0
 10 17  1  0  0  0  0
 10 18  1  0  0  0  0
 19 20  1  0  0  0  0
 20 21  4  0  0  0  0
 20 25  4  0  0  0  0
 21 22  4  0  0  0  0
 21 26  1  0  0  0  0
 22 23  4  0  0  0  0
 22 27  1  0  0  0  0
 23 24  4  0  0  0  0
 23 28  1  0  0  0  0
 24 25  4  0  0  0  0
 24 29  1  0  0  0  0
 25 30  1  0  0  0  0
 26 31  1  0  0  0  0
 26 32  1  0  0  0  0
M  END
> <BCLConfClusterSize>
1

> <ConfClashScore>
0 

> <ConfOneFourInteractionScore>
-0.97007 

> <ConfScore>
0.224448 

> <ConfScorePBest>
0.0027073 

> <ConfTolerance>
0.977691 

> <RosettaParamsInstructions>
M  ROOT 3
M  POLY_N_BB 3
M  POLY_CA_BB 4
M  POLY_C_BB 2
M  POLY_O_BB 5
M  POLY_IGNORE 9 10 11 12 13 14 15 16 17 18 
M  POLY_UPPER 6
M  POLY_LOWER 8
M  POLY_CHG 0
M  POLY_PROPERTIES ALPHA_AA L_AA PROTEIN AROMATIC POLYMER 
M  END

$$$$



 32 32  0  0  0  0  0  0  0  0999 V2000
   -1.0261    0.8780    0.3697 H   0  0  0  1  0  0  0  0  0  0  0  0
   -2.6308    1.7547   -0.6694 C   0  0  0  1  0  0  0  0  0  0  0  0
   -0.3025    2.3762   -0.8442 N   0  0  0  1  0  0  0  0  0  0  0  0
   -1.3120    1.8649    0.0708 C   0  0  0  1  0  0  0  0  0  0  0  0
   -3.4315    0.8554   -0.4170 O   0  0  0  1  0  0  0  0  0  0  0  0
   -2.8547    2.6886   -1.5983 N   0  0  0  1  0  0  0  0  0  0  0  0
   -0.5899    3.0269   -1.5183 H   0  0  0  1  0  0  0  0  0  0  0  0
    0.9867    2.0255   -0.8345 C   0  0  0  1  0  0  0  0  0  0  0  0
   -3.9867    2.6220   -2.5105 C   0  0  0  1  0  0  0  0  0  0  0  0
    1.8775    2.7092   -1.8533 C   0  0  0  1  0  0  0  0  0  0  0  0
    1.4537    1.2553    0.0005 O   0  0  0  1  0  0  0  0  0  0  0  0
   -2.2352    3.4447   -1.6678 H   0  0  0  1  0  0  0  0  0  0  0  0
   -3.7174    3.0644   -3.4468 H   0  0  0  1  0  0  0  0  0  0  0  0
   -4.8148    3.1534   -2.0902 H   0  0  0  1  0  0  0  0  0  0  0  0
   -4.2601    1.5991   -2.6651 H   0  0  0  1  0  0  0  0  0  0  0  0
    1.4610    2.5867   -2.8313 H   0  0  0  1  0  0  0  0  0  0  0  0
    2.8535    2.2716   -1.8241 H   0  0  0  1  0  0  0  0  0  0  0  0
    1.9467    3.7520   -1.6235 H   0  0  0  1  0  0  0  0  0  0  0  0
   -4.1397    3.3020    1.6037 F   0  0  0  1  0  0  0  0  0  0  0  0
   -3.3318    4.3116    1.2268 C   0  0  0  1  0  0  0  0  0  0  0  0
   -1.9715    4.0913    1.0765 C   0  0  0  1  0  0  0  0  0  0  0  0
   -1.1417    5.1287    0.6949 C   0  0  0  1  0  0  0  0  0  0  0  0
   -1.6704    6.3879    0.4572 C   0  0  0  1  0  0  0  0  0  0  0  0
   -3.0268    6.6072    0.6071 C   0  0  0  1  0  0  0  0  0  0  0  0
   -3.8591    5.5669    0.9899 C   0  0  0  1  0  0  0  0  0  0  0  0
   -1.3962    2.7179    1.3298 C   0  0  0  1  0  0  0  0  0  0  0  0
   -0.1205    4.9645    0.5860 H   0  0  0  1  0  0  0  0  0  0  0  0
   -1.0466    7.1674    0.1661 H   0  0  0  1  0  0  0  0  0  0  0  0
   -3.4230    7.5528    0.4327 H   0  0  0  1  0  0  0  0  0  0  0  0
   -4.8803    5.7310    1.0988 H   0  0  0  1  0  0  0  0  0  0  0  0
   -0.4108    2.8302    1.7316 H   0  0  0  1  0  0  0  0  0  0  0  0
   -2.0168    2.2146    2.0413 H   0  0  0  1  0  0  0  0  0  0  0  0
  1  4  1  0  0  0  0
  2  4  1  0  0  0  0
  2  5  2  0  0  0  0
  2  6  1  0  0  0  0
  3  4  1  0  0  0  0
  3  7  1  0  0  0  0
  3  8  1  0  0  0  0
  4 26  1  0  0  0  0
  6  9  1  0  0  0  0
  6 12  1  0  0  0  0
  8 10  1  0  0  0  0
  8 11  2  0  0  0  0
  9 13  1  0  0  0  0
  9 14  1  0  0  0  0
  9 15  1  0  0  0  0
 10 16  1  0  0  0  0
 10 17  1  0  0  0  0
 10 18  1  0  0  0  0
 19 20  1  0  0  0  0
 20 21  4  0  0  0  0
 20 25  4  0  0  0  0
 21 22  4  0  0  0  0
 21 26  1  0  0  0  0
 22 23  4  0  0  0  0
 22 27  1  0  0  0  0
 23 24  4  0  0  0  0
 23 28  1  0  0  0  0
 24 25  4  0  0  0  0
 24 29  1  0  0  0  0
 25 30  1  0  0  0  0
 26 31  1  0  0  0  0
 26 32  1  0  0  0  0
M  END
> <BCLConfClusterSize>
1

> <ConfClashScore>
0 

> <ConfOneFourInteractionScore>
-0.96177 

> <ConfScore>
0.230595 

> <ConfScorePBest>
0.00267882 

> <ConfTolerance>
0.475514 

> <RosettaParamsInstructions>
M  ROOT 3
M  POLY_N_BB 3
M  POLY_CA_BB 4
M  POLY_C_BB 2
M  POLY_O_BB 5
M  POLY_IGNORE 9 10 11 12 13 14 15 16 17 18 
M  POLY_UPPER 6
M  POLY_LOWER 8
M  POLY_CHG 0
M  POLY_PROPERTIES ALPHA_AA L_AA PROTEIN AROMATIC POLYMER 
M  END

$$$$



 32 32  0  0  0  0  0  0  0  0999 V2000
   -0.0254    1.2865    0.5773 H   0  0  0  1  0  0  0  0  0  0  0  0
   -0.6008    2.5751   -1.0125 C   0  0  0  1  0  0  0  0  0  0  0  0
    0.9543    3.1026    0.8096 N   0  0  0  1  0  0  0  0  0  0  0  0
   -0.2234    2.3296    0.4443 C   0  0  0  1  0  0  0  0  0  0  0  0
   -0.4331    3.6744   -1.5389 O   0  0  0  1  0  0  0  0  0  0  0  0
   -1.1171    1.5283   -1.6626 N   0  0  0  1  0  0  0  0  0  0  0  0
    0.8939    3.7832    1.5122 H   0  0  0  1  0  0  0  0  0  0  0  0
    2.1226    2.8855    0.1866 C   0  0  0  1  0  0  0  0  0  0  0  0
   -1.6171    1.5799   -3.0283 C   0  0  0  1  0  0  0  0  0  0  0  0
    3.3289    3.5800    0.7880 C   0  0  0  1  0  0  0  0  0  0  0  0
    2.2276    2.1730   -0.8083 O   0  0  0  1  0  0  0  0  0  0  0  0
   -1.1621    0.6712   -1.1897 H   0  0  0  1  0  0  0  0  0  0  0  0
   -1.1942    2.4240   -3.5319 H   0  0  0  1  0  0  0  0  0  0  0  0
   -2.6832    1.6706   -3.0144 H   0  0  0  1  0  0  0  0  0  0  0  0
   -1.3417    0.6831   -3.5429 H   0  0  0  1  0  0  0  0  0  0  0  0
    4.1964    3.3614    0.2010 H   0  0  0  1  0  0  0  0  0  0  0  0
    3.4785    3.2317    1.7886 H   0  0  0  1  0  0  0  0  0  0  0  0
    3.1629    4.6370    0.7988 H   0  0  0  1  0  0  0  0  0  0  0  0
   -4.1397    3.3019    1.6037 F   0  0  0  1  0  0  0  0  0  0  0  0
   -3.3319    4.3114    1.2268 C   0  0  0  1  0  0  0  0  0  0  0  0
   -1.9715    4.0915    1.0765 C   0  0  0  1  0  0  0  0  0  0  0  0
   -1.1416    5.1287    0.6948 C   0  0  0  1  0  0  0  0  0  0  0  0
   -1.6705    6.3877    0.4572 C   0  0  0  1  0  0  0  0  0  0  0  0
   -3.0268    6.6073    0.6071 C   0  0  0  1  0  0  0  0  0  0  0  0
   -3.8591    5.5669    0.9899 C   0  0  0  1  0  0  0  0  0  0  0  0
   -1.3961    2.7181    1.3297 C   0  0  0  1  0  0  0  0  0  0  0  0
   -0.1204    4.9645    0.5860 H   0  0  0  1  0  0  0  0  0  0  0  0
   -1.0466    7.1673    0.1662 H   0  0  0  1  0  0  0  0  0  0  0  0
   -3.4230    7.5530    0.4327 H   0  0  0  1  0  0  0  0  0  0  0  0
   -4.8802    5.7310    1.0988 H   0  0  0  1  0  0  0  0  0  0  0  0
   -1.0681    2.6802    2.3475 H   0  0  0  1  0  0  0  0  0  0  0  0
   -2.1755    2.0007    1.1787 H   0  0  0  1  0  0  0  0  0  0  0  0
  1  4  1  0  0  0  0
  2  4  1  0  0  0  0
  2  5  2  0  0  0  0
  2  6  1  0  0  0  0
  3  4  1  0  0  0  0
  3  7  1  0  0  0  0
  3  8  1  0  0  0  0
  4 26  1  0  0  0  0
  6  9  1  0  0  0  0
  6 12  1  0  0  0  0
  8 10  1  0  0  0  0
  8 11  2  0  0  0  0
  9 13  1  0  0  0  0
  9 14  1  0  0  0  0
  9 15  1  0  0  0  0
 10 16  1  0  0  0  0
 10 17  1  0  0  0  0
 10 18  1  0  0  0  0
 19 20  1  0  0  0  0
 20 21  4  0  0  0  0
 20 25  4  0  0  0  0
 21 22  4  0  0  0  0
 21 26  1  0  0  0  0
 22 23  4  0  0  0  0
 22 27  1  0  0  0  0
 23 24  4  0  0  0  0
 23 28  1  0  0  0  0
 24 25  4  0  0  0  0
 24 29  1  0  0  0  0
 25 30  1  0  0  0  0
 26 31  1  0  0  0  0
 26 32  1  0  0  0  0
M  END
> <BCLConfClusterSize>
1

> <ConfClashScore>
0 

> <ConfOneFourInteractionScore>
-0.982563 

> <ConfScore>
0.239795 

> <ConfScorePBest>
0.00265034 

> <ConfTolerance>
1.00561 

> <RosettaParamsInstructions>
M  ROOT 3
M  POLY_N_BB 3
M  POLY_CA_BB 4
M  POLY_C_BB 2
M  POLY_O_BB 5
M  POLY_IGNORE 9 10 11 12 13 14 15 16 17 18 
M  POLY_UPPER 6
M  POLY_LOWER 8
M  POLY_CHG 0
M  POLY_PROPERTIES ALPHA_AA L_AA PROTEIN AROMATIC POLYMER 
M  END

$$$$



 32 32  0  0  0  0  0  0  0  0999 V2000
   -0.7082    3.1465    3.2706 H   0  0  0  1  0  0  0  0  0  0  0  0
    0.1365    1.3041    2.7186 C   0  0  0  1  0  0  0  0  0  0  0  0
    0.8121    3.5559    1.9433 N   0  0  0  1  0  0  0  0  0  0  0  0
   -0.2980    2.7170    2.3806 C   0  0  0  1  0  0  0  0  0  0  0  0
   -0.6564    0.3661    2.6474 O   0  0  0  1  0  0  0  0  0  0  0  0
    1.4089    1.1089    3.0968 N   0  0  0  1  0  0  0  0  0  0  0  0
    1.0728    4.3217    2.4965 H   0  0  0  1  0  0  0  0  0  0  0  0
    1.4926    3.3143    0.8035 C   0  0  0  1  0  0  0  0  0  0  0  0
    1.9039   -0.1934    3.5174 C   0  0  0  1  0  0  0  0  0  0  0  0
    2.6825    4.1977    0.4829 C   0  0  0  1  0  0  0  0  0  0  0  0
    1.1600    2.4063    0.0464 O   0  0  0  1  0  0  0  0  0  0  0  0
    2.0265    1.8698    3.0896 H   0  0  0  1  0  0  0  0  0  0  0  0
    2.7878   -0.0663    4.1068 H   0  0  0  1  0  0  0  0  0  0  0  0
    2.1327   -0.7834    2.6546 H   0  0  0  1  0  0  0  0  0  0  0  0
    1.1551   -0.6881    4.1000 H   0  0  0  1  0  0  0  0  0  0  0  0
    2.3586    5.2133    0.3897 H   0  0  0  1  0  0  0  0  0  0  0  0
    3.1253    3.8789   -0.4376 H   0  0  0  1  0  0  0  0  0  0  0  0
    3.4033    4.1244    1.2703 H   0  0  0  1  0  0  0  0  0  0  0  0
   -4.1397    3.3020    1.6037 F   0  0  0  1  0  0  0  0  0  0  0  0
   -3.3318    4.3115    1.2268 C   0  0  0  1  0  0  0  0  0  0  0  0
   -1.9715    4.0913    1.0765 C   0  0  0  1  0  0  0  0  0  0  0  0
   -1.1417    5.1287    0.6949 C   0  0  0  1  0  0  0  0  0  0  0  0
   -1.6705    6.3878    0.4572 C   0  0  0  1  0  0  0  0  0  0  0  0
   -3.0268    6.6072    0.6071 C   0  0  0  1  0  0  0  0  0  0  0  0
   -3.8591    5.5669    0.9899 C   0  0  0  1  0  0  0  0  0  0  0  0
   -1.3961    2.7179    1.3298 C   0  0  0  1  0  0  0  0  0  0  0  0
   -0.1205    4.9646    0.5860 H   0  0  0  1  0  0  0  0  0  0  0  0
   -1.0466    7.1674    0.1662 H   0  0  0  1  0  0  0  0  0  0  0  0
   -3.4229    7.5528    0.4327 H   0  0  0  1  0  0  0  0  0  0  0  0
   -4.8803    5.7311    1.0987 H   0  0  0  1  0  0  0  0  0  0  0  0
   -2.1843    2.0741    1.6602 H   0  0  0  1  0  0  0  0  0  0  0  0
   -0.9904    2.3443    0.4129 H   0  0  0  1  0  0  0  0  0  0  0  0
  1  4  1  0  0  0  0
  2  4  1  0  0  0  0
  2  5  2  0  0  0  0
  2  6  1  0  0  0  0
  3  4  1  0  0  0  0
  3  7  1  0  0  0  0
  3  8  1  0  0  0  0
  4 26  1  0  0  0  0
  6  9  1  0  0  0  0
  6 12  1  0  0  0  0
  8 10  1  0  0  0  0
  8 11  2  0  0  0  0
  9 13  1  0  0  0  0
  9 14  1  0  0  0  0
  9 15  1  0  0  0  0
 10 16  1  0  0  0  0
 10 17  1  0  0  0  0
 10 18  1  0  0  0  0
 19 20  1  0  0  0  0
 20 21  4  0  0  0  0
 20 25  4  0  0  0  0
 21 22  4  0  0  0  0
 21 26  1  0  0  0  0
 22 23  4  0  0  0  0
 22 27  1  0  0  0  0
 23 24  4  0  0  0  0
 23 28  1  0  0  0  0
 24 25  4  0  0  0  0
 24 29  1  0  0  0  0
 25 30  1  0  0  0  0
 26 31  1  0  0  0  0
 26 32  1  0  0  0  0
M  END
> <BCLConfClusterSize>
1

> <ConfClashScore>
0 

> <ConfOneFourInteractionScore>
-0.953096 

> <ConfScore>
0.243239 

> <ConfScorePBest>
0.00262186 

> <ConfTolerance>
0.705974 

> <RosettaParamsInstructions>
M  ROOT 3
M  POLY_N_BB 3
M  POLY_CA_BB 4
M  POLY_C_BB 2
M  POLY_O_BB 5
M  POLY_IGNORE 9 10 11 12 13 14 15 16 17 18 
M  POLY_UPPER 6
M  POLY_LOWER 8
M  POLY_CHG 0
M  POLY_PROPERTIES ALPHA_AA L_AA PROTEIN AROMATIC POLYMER 
M  END

$$$$



 32 32  0  0  0  0  0  0  0  0999 V2000
   -2.0283    2.3484    3.2979 H   0  0  0  1  0  0  0  0  0  0  0  0
   -0.4787    0.9726    2.9580 C   0  0  0  1  0  0  0  0  0  0  0  0
   -0.2375    3.3803    3.3856 N   0  0  0  1  0  0  0  0  0  0  0  0
   -1.0965    2.3485    2.7719 C   0  0  0  1  0  0  0  0  0  0  0  0
    0.7417    0.8181    2.9774 O   0  0  0  1  0  0  0  0  0  0  0  0
   -1.3459   -0.0417    3.0969 N   0  0  0  1  0  0  0  0  0  0  0  0
    0.2937    3.9760    2.8169 H   0  0  0  1  0  0  0  0  0  0  0  0
   -0.1826    3.5038    4.7148 C   0  0  0  1  0  0  0  0  0  0  0  0
   -2.7871    0.1595    3.0781 C   0  0  0  1  0  0  0  0  0  0  0  0
    0.7374    4.6183    5.2164 C   0  0  0  1  0  0  0  0  0  0  0  0
   -0.8617    2.8515    5.5033 O   0  0  0  1  0  0  0  0  0  0  0  0
   -0.9966   -0.9497    3.2151 H   0  0  0  1  0  0  0  0  0  0  0  0
   -3.2803   -0.7730    3.2576 H   0  0  0  1  0  0  0  0  0  0  0  0
   -3.0814    0.5401    2.1224 H   0  0  0  1  0  0  0  0  0  0  0  0
   -3.0592    0.8592    3.8404 H   0  0  0  1  0  0  0  0  0  0  0  0
    1.7277    4.2336    5.3442 H   0  0  0  1  0  0  0  0  0  0  0  0
    0.3741    4.9858    6.1534 H   0  0  0  1  0  0  0  0  0  0  0  0
    0.7541    5.4151    4.5025 H   0  0  0  1  0  0  0  0  0  0  0  0
   -4.1391    3.2983    1.5955 F   0  0  0  1  0  0  0  0  0  0  0  0
   -3.3303    4.3096    1.2252 C   0  0  0  1  0  0  0  0  0  0  0  0
   -1.9735    4.0910    1.0783 C   0  0  0  1  0  0  0  0  0  0  0  0
   -1.1416    5.1304    0.6920 C   0  0  0  1  0  0  0  0  0  0  0  0
   -1.6684    6.3867    0.4589 C   0  0  0  1  0  0  0  0  0  0  0  0
   -3.0292    6.6062    0.6062 C   0  0  0  1  0  0  0  0  0  0  0  0
   -3.8584    5.5697    0.9914 C   0  0  0  1  0  0  0  0  0  0  0  0
   -1.3971    2.7194    1.3387 C   0  0  0  1  0  0  0  0  0  0  0  0
   -0.1213    4.9648    0.5776 H   0  0  0  1  0  0  0  0  0  0  0  0
   -1.0438    7.1676    0.1730 H   0  0  0  1  0  0  0  0  0  0  0  0
   -3.4261    7.5506    0.4269 H   0  0  0  1  0  0  0  0  0  0  0  0
   -4.8788    5.7352    1.1058 H   0  0  0  1  0  0  0  0  0  0  0  0
   -2.0956    2.0017    0.9620 H   0  0  0  1  0  0  0  0  0  0  0  0
   -0.4809    2.6478    0.7906 H   0  0  0  1  0  0  0  0  0  0  0  0
  1  4  1  0  0  0  0
  2  4  1  0  0  0  0
  2  5  2  0  0  0  0
  2  6  1  0  0  0  0
  3  4  1  0  0  0  0
  3  7  1  0  0  0  0
  3  8  1  0  0  0  0
  4 26  1  0  0  0  0
  6  9  1  0  0  0  0
  6 12  1  0  0  0  0
  8 10  1  0  0  0  0
  8 11  2  0  0  0  0
  9 13  1  0  0  0  0
  9 14  1  0  0  0  0
  9 15  1  0  0  0  0
 10 16  1  0  0  0  0
 10 17  1  0  0  0  0
 10 18  1  0  0  0  0
 19 20  1  0  0  0  0
 20 21  4  0  0  0  0
 20 25  4  0  0  0  0
 21 22  4  0  0  0  0
 21 26  1  0  0  0  0
 22 23  4  0  0  0  0
 22 27  1  0  0  0  0
 23 24  4  0  0  0  0
 23 28  1  0  0  0  0
 24 25  4  0  0  0  0
 24 29  1  0  0  0  0
 25 30  1  0  0  0  0
 26 31  1  0  0  0  0
 26 32  1  0  0  0  0
M  END
> <BCLConfClusterSize>
1

> <ConfClashScore>
0 

> <ConfOneFourInteractionScore>
-0.985807 

> <ConfScore>
0.282773 

> <ConfScorePBest>
0.00259338 

> <ConfTolerance>
1.04052 

> <RosettaParamsInstructions>
M  ROOT 3
M  POLY_N_BB 3
M  POLY_CA_BB 4
M  POLY_C_BB 2
M  POLY_O_BB 5
M  POLY_IGNORE 9 10 11 12 13 14 15 16 17 18 
M  POLY_UPPER 6
M  POLY_LOWER 8
M  POLY_CHG 0
M  POLY_PROPERTIES ALPHA_AA L_AA PROTEIN AROMATIC POLYMER 
M  END

$$$$



 32 32  0  0  0  0  0  0  0  0999 V2000
    0.6354    3.4287    1.2832 H   0  0  0  1  0  0  0  0  0  0  0  0
    0.7176    1.3274    1.4674 C   0  0  0  1  0  0  0  0  0  0  0  0
    0.2128    2.5860   -0.5570 N   0  0  0  1  0  0  0  0  0  0  0  0
    0.1001    2.5880    0.8940 C   0  0  0  1  0  0  0  0  0  0  0  0
    0.4045    0.9185    2.5844 O   0  0  0  1  0  0  0  0  0  0  0  0
    1.5401    0.6525    0.6628 N   0  0  0  1  0  0  0  0  0  0  0  0
    0.8381    3.2085   -0.9836 H   0  0  0  1  0  0  0  0  0  0  0  0
   -0.5135    1.7571   -1.3352 C   0  0  0  1  0  0  0  0  0  0  0  0
    2.1259   -0.6241    1.0437 C   0  0  0  1  0  0  0  0  0  0  0  0
   -0.2518    1.7688   -2.8242 C   0  0  0  1  0  0  0  0  0  0  0  0
   -1.3644    1.0127   -0.8499 O   0  0  0  1  0  0  0  0  0  0  0  0
    1.7573    1.0293   -0.2154 H   0  0  0  1  0  0  0  0  0  0  0  0
    2.3617   -1.1856    0.1639 H   0  0  0  1  0  0  0  0  0  0  0  0
    1.4276   -1.1729    1.6403 H   0  0  0  1  0  0  0  0  0  0  0  0
    3.0193   -0.4523    1.6069 H   0  0  0  1  0  0  0  0  0  0  0  0
   -1.1710    1.9315   -3.3472 H   0  0  0  1  0  0  0  0  0  0  0  0
    0.1651    0.8289   -3.1202 H   0  0  0  1  0  0  0  0  0  0  0  0
    0.4357    2.5544   -3.0591 H   0  0  0  1  0  0  0  0  0  0  0  0
   -4.1391    3.2984    1.5955 F   0  0  0  1  0  0  0  0  0  0  0  0
   -3.3302    4.3096    1.2252 C   0  0  0  1  0  0  0  0  0  0  0  0
   -1.9734    4.0909    1.0783 C   0  0  0  1  0  0  0  0  0  0  0  0
   -1.1418    5.1304    0.6920 C   0  0  0  1  0  0  0  0  0  0  0  0
   -1.6684    6.3868    0.4589 C   0  0  0  1  0  0  0  0  0  0  0  0
   -3.0291    6.6060    0.6062 C   0  0  0  1  0  0  0  0  0  0  0  0
   -3.8586    5.5697    0.9914 C   0  0  0  1  0  0  0  0  0  0  0  0
   -1.3969    2.7193    1.3387 C   0  0  0  1  0  0  0  0  0  0  0  0
   -0.1214    4.9649    0.5776 H   0  0  0  1  0  0  0  0  0  0  0  0
   -1.0437    7.1676    0.1729 H   0  0  0  1  0  0  0  0  0  0  0  0
   -3.4260    7.5505    0.4269 H   0  0  0  1  0  0  0  0  0  0  0  0
   -4.8789    5.7352    1.1058 H   0  0  0  1  0  0  0  0  0  0  0  0
   -1.4596    2.5170    2.3875 H   0  0  0  1  0  0  0  0  0  0  0  0
   -1.9765    1.9985    0.8007 H   0  0  0  1  0  0  0  0  0  0  0  0
  1  4  1  0  0  0  0
  2  4  1  0  0  0  0
  2  5  2  0  0  0  0
  2  6  1  0  0  0  0
  3  4  1  0  0  0  0
  3  7  1  0  0  0  0
  3  8  1  0  0  0  0
  4 26  1  0  0  0  0
  6  9  1  0  0  0  0
  6 12  1  0  0  0  0
  8 10  1  0  0  0  0
  8 11  2  0  0  0  0
  9 13  1  0  0  0  0
  9 14  1  0  0  0  0
  9 15  1  0  0  0  0
 10 16  1  0  0  0  0
 10 17  1  0  0  0  0
 10 18  1  0  0  0  0
 19 20  1  0  0  0  0
 20 21  4  0  0  0  0
 20 25  4  0  0  0  0
 21 22  4  0  0  0  0
 21 26  1  0  0  0  0
 22 23  4  0  0  0  0
 22 27  1  0  0  0  0
 23 24  4  0  0  0  0
 23 28  1  0  0  0  0
 24 25  4  0  0  0  0
 24 29  1  0  0  0  0
 25 30  1  0  0  0  0
 26 31  1  0  0  0  0
 26 32  1  0  0  0  0
M  END
> <BCLConfClusterSize>
1

> <ConfClashScore>
0 

> <ConfOneFourInteractionScore>
-0.945655 

> <ConfScore>
0.283117 

> <ConfScorePBest>
0.0025649 

> <ConfTolerance>
1.00986 

> <RosettaParamsInstructions>
M  ROOT 3
M  POLY_N_BB 3
M  POLY_CA_BB 4
M  POLY_C_BB 2
M  POLY_O_BB 5
M  POLY_IGNORE 9 10 11 12 13 14 15 16 17 18 
M  POLY_UPPER 6
M  POLY_LOWER 8
M  POLY_CHG 0
M  POLY_PROPERTIES ALPHA_AA L_AA PROTEIN AROMATIC POLYMER 
M  END

$$$$



 32 32  0  0  0  0  0  0  0  0999 V2000
   -0.5733    3.1392    3.2277 H   0  0  0  1  0  0  0  0  0  0  0  0
   -2.6102    2.7255    3.5307 C   0  0  0  1  0  0  0  0  0  0  0  0
   -0.8045    1.1020    3.0634 N   0  0  0  1  0  0  0  0  0  0  0  0
   -1.2925    2.4532    2.8315 C   0  0  0  1  0  0  0  0  0  0  0  0
   -2.8495    3.8205    4.0379 O   0  0  0  1  0  0  0  0  0  0  0  0
   -3.4793    1.7036    3.5548 N   0  0  0  1  0  0  0  0  0  0  0  0
   -1.4642    0.3773    3.0730 H   0  0  0  1  0  0  0  0  0  0  0  0
    0.4727    0.7756    3.2639 C   0  0  0  1  0  0  0  0  0  0  0  0
   -4.8325    1.7731    4.0857 C   0  0  0  1  0  0  0  0  0  0  0  0
    0.7709   -0.7097    3.3268 C   0  0  0  1  0  0  0  0  0  0  0  0
    1.3657    1.6121    3.3919 O   0  0  0  1  0  0  0  0  0  0  0  0
   -3.1803    0.8457    3.1873 H   0  0  0  1  0  0  0  0  0  0  0  0
   -5.1641    2.7905    4.0865 H   0  0  0  1  0  0  0  0  0  0  0  0
   -4.8428    1.3942    5.0863 H   0  0  0  1  0  0  0  0  0  0  0  0
   -5.4857    1.1859    3.4747 H   0  0  0  1  0  0  0  0  0  0  0  0
    1.5643   -0.8856    4.0229 H   0  0  0  1  0  0  0  0  0  0  0  0
    1.0640   -1.0558    2.3576 H   0  0  0  1  0  0  0  0  0  0  0  0
   -0.1050   -1.2360    3.6442 H   0  0  0  1  0  0  0  0  0  0  0  0
   -4.1392    3.2983    1.5955 F   0  0  0  1  0  0  0  0  0  0  0  0
   -3.3303    4.3095    1.2252 C   0  0  0  1  0  0  0  0  0  0  0  0
   -1.9735    4.0910    1.0783 C   0  0  0  1  0  0  0  0  0  0  0  0
   -1.1417    5.1304    0.6920 C   0  0  0  1  0  0  0  0  0  0  0  0
   -1.6684    6.3867    0.4589 C   0  0  0  1  0  0  0  0  0  0  0  0
   -3.0292    6.6061    0.6062 C   0  0  0  1  0  0  0  0  0  0  0  0
   -3.8585    5.5697    0.9914 C   0  0  0  1  0  0  0  0  0  0  0  0
   -1.3970    2.7194    1.3387 C   0  0  0  1  0  0  0  0  0  0  0  0
   -0.1213    4.9649    0.5776 H   0  0  0  1  0  0  0  0  0  0  0  0
   -1.0438    7.1675    0.1730 H   0  0  0  1  0  0  0  0  0  0  0  0
   -3.4261    7.5506    0.4269 H   0  0  0  1  0  0  0  0  0  0  0  0
   -4.8788    5.7352    1.1058 H   0  0  0  1  0  0  0  0  0  0  0  0
   -2.0321    1.9817    0.8944 H   0  0  0  1  0  0  0  0  0  0  0  0
   -0.4216    2.6602    0.9027 H   0  0  0  1  0  0  0  0  0  0  0  0
  1  4  1  0  0  0  0
  2  4  1  0  0  0  0
  2  5  2  0  0  0  0
  2  6  1  0  0  0  0
  3  4  1  0  0  0  0
  3  7  1  0  0  0  0
  3  8  1  0  0  0  0
  4 26  1  0  0  0  0
  6  9  1  0  0  0  0
  6 12  1  0  0  0  0
  8 10  1  0  0  0  0
  8 11  2  0  0  0  0
  9 13  1  0  0  0  0
  9 14  1  0  0  0  0
  9 15  1  0  0  0  0
 10 16  1  0  0  0  0
 10 17  1  0  0  0  0
 10 18  1  0  0  0  0
 19 20  1  0  0  0  0
 20 21  4  0  0  0  0
 20 25  4  0  0  0  0
 21 22  4  0  0  0  0
 21 26  1  0  0  0  0
 22 23  4  0  0  0  0
 22 27  1  0  0  0  0
 23 24  4  0  0  0  0
 23 28  1  0  0  0  0
 24 25  4  0  0  0  0
 24 29  1  0  0  0  0
 25 30  1  0  0  0  0
 26 31  1  0  0  0  0
 26 32  1  0  0  0  0
M  END
> <BCLConfClusterSize>
1

> <ConfClashScore>
0 

> <ConfOneFourInteractionScore>
-0.961138 

> <ConfScore>
0.28494 

> <ConfScorePBest>
0.00253641 

> <ConfTolerance>
1.0742 

> <RosettaParamsInstructions>
M  ROOT 3
M  POLY_N_BB 3
M  POLY_CA_BB 4
M  POLY_C_BB 2
M  POLY_O_BB 5
M  POLY_IGNORE 9 10 11 12 13 14 15 16 17 18 
M  POLY_UPPER 6
M  POLY_LOWER 8
M  POLY_CHG 0
M  POLY_PROPERTIES ALPHA_AA L_AA PROTEIN AROMATIC POLYMER 
M  END

$$$$



 32 32  0  0  0  0  0  0  0  0999 V2000
   -1.0484    0.8415    0.4762 H   0  0  0  1  0  0  0  0  0  0  0  0
   -3.0908    1.1975    0.1610 C   0  0  0  1  0  0  0  0  0  0  0  0
   -1.2288    2.1570   -1.0896 N   0  0  0  1  0  0  0  0  0  0  0  0
   -1.6491    1.6936    0.2356 C   0  0  0  1  0  0  0  0  0  0  0  0
   -3.7850    1.1092    1.1725 O   0  0  0  1  0  0  0  0  0  0  0  0
   -3.5714    0.9549   -1.0618 N   0  0  0  1  0  0  0  0  0  0  0  0
   -0.4171    1.7786   -1.4875 H   0  0  0  1  0  0  0  0  0  0  0  0
   -1.9138    3.0773   -1.7742 C   0  0  0  1  0  0  0  0  0  0  0  0
   -4.9366    0.5439   -1.3539 C   0  0  0  1  0  0  0  0  0  0  0  0
   -1.4029    3.3752   -3.1705 C   0  0  0  1  0  0  0  0  0  0  0  0
   -2.8985    3.6565   -1.3176 O   0  0  0  1  0  0  0  0  0  0  0  0
   -2.9586    1.0617   -1.8190 H   0  0  0  1  0  0  0  0  0  0  0  0
   -5.2717    1.0275   -2.2476 H   0  0  0  1  0  0  0  0  0  0  0  0
   -5.5737    0.8190   -0.5395 H   0  0  0  1  0  0  0  0  0  0  0  0
   -4.9681   -0.5170   -1.4894 H   0  0  0  1  0  0  0  0  0  0  0  0
   -1.4228    2.4802   -3.7566 H   0  0  0  1  0  0  0  0  0  0  0  0
   -0.3990    3.7408   -3.1121 H   0  0  0  1  0  0  0  0  0  0  0  0
   -2.0264    4.1148   -3.6279 H   0  0  0  1  0  0  0  0  0  0  0  0
   -4.1397    3.3020    1.6037 F   0  0  0  1  0  0  0  0  0  0  0  0
   -3.3318    4.3115    1.2268 C   0  0  0  1  0  0  0  0  0  0  0  0
   -1.9715    4.0913    1.0765 C   0  0  0  1  0  0  0  0  0  0  0  0
   -1.1417    5.1287    0.6949 C   0  0  0  1  0  0  0  0  0  0  0  0
   -1.6705    6.3878    0.4572 C   0  0  0  1  0  0  0  0  0  0  0  0
   -3.0268    6.6072    0.6071 C   0  0  0  1  0  0  0  0  0  0  0  0
   -3.8591    5.5669    0.9899 C   0  0  0  1  0  0  0  0  0  0  0  0
   -1.3961    2.7179    1.3298 C   0  0  0  1  0  0  0  0  0  0  0  0
   -0.1205    4.9646    0.5860 H   0  0  0  1  0  0  0  0  0  0  0  0
   -1.0466    7.1674    0.1662 H   0  0  0  1  0  0  0  0  0  0  0  0
   -3.4229    7.5528    0.4327 H   0  0  0  1  0  0  0  0  0  0  0  0
   -4.8803    5.7311    1.0987 H   0  0  0  1  0  0  0  0  0  0  0  0
   -0.3375    2.8202    1.4478 H   0  0  0  1  0  0  0  0  0  0  0  0
   -1.8222    2.3437    2.2371 H   0  0  0  1  0  0  0  0  0  0  0  0
  1  4  1  0  0  0  0
  2  4  1  0  0  0  0
  2  5  2  0  0  0  0
  2  6  1  0  0  0  0
  3  4  1  0  0  0  0
  3  7  1  0  0  0  0
  3  8  1  0  0  0  0
  4 26  1  0  0  0  0
  6  9  1  0  0  0  0
  6 12  1  0  0  0  0
  8 10  1  0  0  0  0
  8 11  2  0  0  0  0
  9 13  1  0  0  0  0
  9 14  1  0  0  0  0
  9 15  1  0  0  0  0
 10 16  1  0  0  0  0
 10 17  1  0  0  0  0
 10 18  1  0  0  0  0
 19 20  1  0  0  0  0
 20 21  4  0  0  0  0
 20 25  4  0  0  0  0
 21 22  4  0  0  0  0
 21 26  1  0  0  0  0
 22 23  4  0  0  0  0
 22 27  1  0  0  0  0
 23 24  4  0  0  0  0
 23 28  1  0  0  0  0
 24 25  4  0  0  0  0
 24 29  1  0  0  0  0
 25 30  1  0  0  0  0
 26 31  1  0  0  0  0
 26 32  1  0  0  0  0
M  END
> <BCLConfClusterSize>
1

> <ConfClashScore>
0 

> <ConfOneFourInteractionScore>
-0.929341 

> <ConfScore>
0.302486 

> <ConfScorePBest>
0.00250793 

> <ConfTolerance>
1.0257 

> <RosettaParamsInstructions>
M  ROOT 3
M  POLY_N_BB 3
M  POLY_CA_BB 4
M  POLY_C_BB 2
M  POLY_O_BB 5
M  POLY_IGNORE 9 10 11 12 13 14 15 16 17 18 
M  POLY_UPPER 6
M  POLY_LOWER 8
M  POLY_CHG 0
M  POLY_PROPERTIES ALPHA_AA L_AA PROTEIN AROMATIC POLYMER 
M  END

$$$$



 32 32  0  0  0  0  0  0  0  0999 V2000
   -0.2629    1.8439    2.8972 H   0  0  0  1  0  0  0  0  0  0  0  0
    1.1024    2.7258    1.5453 C   0  0  0  1  0  0  0  0  0  0  0  0
   -0.2808    3.8987    3.1890 N   0  0  0  1  0  0  0  0  0  0  0  0
   -0.2145    2.7328    2.3036 C   0  0  0  1  0  0  0  0  0  0  0  0
    1.3502    3.6067    0.7231 O   0  0  0  1  0  0  0  0  0  0  0  0
    1.9147    1.6872    1.7475 N   0  0  0  1  0  0  0  0  0  0  0  0
   -0.1852    4.7841    2.7801 H   0  0  0  1  0  0  0  0  0  0  0  0
   -0.4621    3.8453    4.5133 C   0  0  0  1  0  0  0  0  0  0  0  0
    3.1593    1.4511    1.0313 C   0  0  0  1  0  0  0  0  0  0  0  0
   -0.4215    5.1946    5.2270 C   0  0  0  1  0  0  0  0  0  0  0  0
   -0.5792    2.7968    5.1462 O   0  0  0  1  0  0  0  0  0  0  0  0
    1.6536    1.0339    2.4298 H   0  0  0  1  0  0  0  0  0  0  0  0
    3.4008    0.4094    1.0686 H   0  0  0  1  0  0  0  0  0  0  0  0
    3.9455    2.0158    1.4872 H   0  0  0  1  0  0  0  0  0  0  0  0
    3.0467    1.7545    0.0114 H   0  0  0  1  0  0  0  0  0  0  0  0
   -0.8772    5.9395    4.6087 H   0  0  0  1  0  0  0  0  0  0  0  0
    0.5955    5.4652    5.4202 H   0  0  0  1  0  0  0  0  0  0  0  0
   -0.9544    5.1246    6.1522 H   0  0  0  1  0  0  0  0  0  0  0  0
   -4.1397    3.3020    1.6037 F   0  0  0  1  0  0  0  0  0  0  0  0
   -3.3318    4.3116    1.2268 C   0  0  0  1  0  0  0  0  0  0  0  0
   -1.9715    4.0913    1.0765 C   0  0  0  1  0  0  0  0  0  0  0  0
   -1.1417    5.1287    0.6949 C   0  0  0  1  0  0  0  0  0  0  0  0
   -1.6704    6.3879    0.4572 C   0  0  0  1  0  0  0  0  0  0  0  0
   -3.0268    6.6072    0.6071 C   0  0  0  1  0  0  0  0  0  0  0  0
   -3.8591    5.5669    0.9899 C   0  0  0  1  0  0  0  0  0  0  0  0
   -1.3962    2.7179    1.3298 C   0  0  0  1  0  0  0  0  0  0  0  0
   -0.1205    4.9645    0.5860 H   0  0  0  1  0  0  0  0  0  0  0  0
   -1.0466    7.1674    0.1661 H   0  0  0  1  0  0  0  0  0  0  0  0
   -3.4230    7.5528    0.4327 H   0  0  0  1  0  0  0  0  0  0  0  0
   -4.8803    5.7310    1.0988 H   0  0  0  1  0  0  0  0  0  0  0  0
   -2.1657    2.0962    1.7375 H   0  0  0  1  0  0  0  0  0  0  0  0
   -1.0642    2.3105    0.3977 H   0  0  0  1  0  0  0  0  0  0  0  0
  1  4  1  0  0  0  0
  2  4  1  0  0  0  0
  2  5  2  0  0  0  0
  2  6  1  0  0  0  0
  3  4  1  0  0  0  0
  3  7  1  0  0  0  0
  3  8  1  0  0  0  0
  4 26  1  0  0  0  0
  6  9  1  0  0  0  0
  6 12  1  0  0  0  0
  8 10  1  0  0  0  0
  8 11  2  0  0  0  0
  9 13  1  0  0  0  0
  9 14  1  0  0  0  0
  9 15  1  0  0  0  0
 10 16  1  0  0  0  0
 10 17  1  0  0  0  0
 10 18  1  0  0  0  0
 19 20  1  0  0  0  0
 20 21  4  0  0  0  0
 20 25  4  0  0  0  0
 21 22  4  0  0  0  0
 21 26  1  0  0  0  0
 22 23  4  0  0  0  0
 22 27  1  0  0  0  0
 23 24  4  0  0  0  0
 23 28  1  0  0  0  0
 24 25  4  0  0  0  0
 24 29  1  0  0  0  0
 25 30  1  0  0  0  0
 26 31  1  0  0  0  0
 26 32  1  0  0  0  0
M  END
> <BCLConfClusterSize>
1

> <ConfClashScore>
0 

> <ConfOneFourInteractionScore>
-0.960579 

> <ConfScore>
0.325079 

> <ConfScorePBest>
0.00247945 

> <ConfTolerance>
1.11335 

> <RosettaParamsInstructions>
M  ROOT 3
M  POLY_N_BB 3
M  POLY_CA_BB 4
M  POLY_C_BB 2
M  POLY_O_BB 5
M  POLY_IGNORE 9 10 11 12 13 14 15 16 17 18 
M  POLY_UPPER 6
M  POLY_LOWER 8
M  POLY_CHG 0
M  POLY_PROPERTIES ALPHA_AA L_AA PROTEIN AROMATIC POLYMER 
M  END

$$$$



 32 32  0  0  0  0  0  0  0  0999 V2000
   -2.7312    1.6095    0.1501 H   0  0  0  1  0  0  0  0  0  0  0  0
   -1.3099    2.4387   -1.1467 C   0  0  0  1  0  0  0  0  0  0  0  0
   -1.0154    0.5123    0.4214 N   0  0  0  1  0  0  0  0  0  0  0  0
   -1.6756    1.7838    0.1660 C   0  0  0  1  0  0  0  0  0  0  0  0
   -0.1423    2.7296   -1.4031 O   0  0  0  1  0  0  0  0  0  0  0  0
   -2.2913    2.6913   -2.0175 N   0  0  0  1  0  0  0  0  0  0  0  0
   -1.5482   -0.2380    0.7585 H   0  0  0  1  0  0  0  0  0  0  0  0
    0.2919    0.3322    0.2124 C   0  0  0  1  0  0  0  0  0  0  0  0
   -2.0452    3.3271   -3.3032 C   0  0  0  1  0  0  0  0  0  0  0  0
    0.8144   -1.1072    0.3021 C   0  0  0  1  0  0  0  0  0  0  0  0
    1.0527    1.2411   -0.1172 O   0  0  0  1  0  0  0  0  0  0  0  0
   -3.2087    2.4396   -1.7822 H   0  0  0  1  0  0  0  0  0  0  0  0
   -1.0825    3.0351   -3.6676 H   0  0  0  1  0  0  0  0  0  0  0  0
   -2.0747    4.3903   -3.1865 H   0  0  0  1  0  0  0  0  0  0  0  0
   -2.7975    3.0233   -4.0008 H   0  0  0  1  0  0  0  0  0  0  0  0
    0.2861   -1.7231   -0.3954 H   0  0  0  1  0  0  0  0  0  0  0  0
    0.6626   -1.4804    1.2934 H   0  0  0  1  0  0  0  0  0  0  0  0
    1.8590   -1.1223    0.0709 H   0  0  0  1  0  0  0  0  0  0  0  0
   -4.1391    3.2984    1.5955 F   0  0  0  1  0  0  0  0  0  0  0  0
   -3.3302    4.3096    1.2252 C   0  0  0  1  0  0  0  0  0  0  0  0
   -1.9734    4.0909    1.0783 C   0  0  0  1  0  0  0  0  0  0  0  0
   -1.1418    5.1304    0.6920 C   0  0  0  1  0  0  0  0  0  0  0  0
   -1.6684    6.3868    0.4589 C   0  0  0  1  0  0  0  0  0  0  0  0
   -3.0291    6.6060    0.6062 C   0  0  0  1  0  0  0  0  0  0  0  0
   -3.8586    5.5697    0.9914 C   0  0  0  1  0  0  0  0  0  0  0  0
   -1.3969    2.7193    1.3387 C   0  0  0  1  0  0  0  0  0  0  0  0
   -0.1214    4.9649    0.5776 H   0  0  0  1  0  0  0  0  0  0  0  0
   -1.0437    7.1676    0.1729 H   0  0  0  1  0  0  0  0  0  0  0  0
   -3.4260    7.5505    0.4269 H   0  0  0  1  0  0  0  0  0  0  0  0
   -4.8789    5.7352    1.1058 H   0  0  0  1  0  0  0  0  0  0  0  0
   -0.3392    2.8036    1.4765 H   0  0  0  1  0  0  0  0  0  0  0  0
   -1.8413    2.3142    2.2238 H   0  0  0  1  0  0  0  0  0  0  0  0
  1  4  1  0  0  0  0
  2  4  1  0  0  0  0
  2  5  2  0  0  0  0
  2  6  1  0  0  0  0
  3  4  1  0  0  0  0
  3  7  1  0  0  0  0
  3  8  1  0  0  0  0
  4 26  1  0  0  0  0
  6  9  1  0  0  0  0
  6 12  1  0  0  0  0
  8 10  1  0  0  0  0
  8 11  2  0  0  0  0
  9 13  1  0  0  0  0
  9 14  1  0  0  0  0
  9 15  1  0  0  0  0
 10 16  1  0  0  0  0
 10 17  1  0  0  0  0
 10 18  1  0  0  0  0
 19 20  1  0  0  0  0
 20 21  4  0  0  0  0
 20 25  4  0  0  0  0
 21 22  4  0  0  0  0
 21 26  1  0  0  0  0
 22 23  4  0  0  0  0
 22 27  1  0  0  0  0
 23 24  4  0  0  0  0
 23 28  1  0  0  0  0
 24 25  4  0  0  0  0
 24 29  1  0  0  0  0
 25 30  1  0  0  0  0
 26 31  1  0  0  0  0
 26 32  1  0  0  0  0
M  END
> <BCLConfClusterSize>
1

> <ConfClashScore>
0 

> <ConfOneFourInteractionScore>
-0.983211 

> <ConfScore>
0.334826 

> <ConfScorePBest>
0.00245097 

> <ConfTolerance>
0.956629 

> <RosettaParamsInstructions>
M  ROOT 3
M  POLY_N_BB 3
M  POLY_CA_BB 4
M  POLY_C_BB 2
M  POLY_O_BB 5
M  POLY_IGNORE 9 10 11 12 13 14 15 16 17 18 
M  POLY_UPPER 6
M  POLY_LOWER 8
M  POLY_CHG 0
M  POLY_PROPERTIES ALPHA_AA L_AA PROTEIN AROMATIC POLYMER 
M  END

$$$$



 32 32  0  0  0  0  0  0  0  0999 V2000
   -1.0097    2.1552   -0.6587 H   0  0  0  1  0  0  0  0  0  0  0  0
   -0.6578    0.4859    0.5803 C   0  0  0  1  0  0  0  0  0  0  0  0
   -2.8596    1.4191   -0.1021 N   0  0  0  1  0  0  0  0  0  0  0  0
   -1.4641    1.7135    0.2035 C   0  0  0  1  0  0  0  0  0  0  0  0
   -1.2029   -0.5264    1.0181 O   0  0  0  1  0  0  0  0  0  0  0  0
    0.6695    0.5833    0.4042 N   0  0  0  1  0  0  0  0  0  0  0  0
   -3.4968    1.4217    0.6424 H   0  0  0  1  0  0  0  0  0  0  0  0
   -3.3338    1.1465   -1.3188 C   0  0  0  1  0  0  0  0  0  0  0  0
    1.5647   -0.5471    0.6002 C   0  0  0  1  0  0  0  0  0  0  0  0
   -2.3055    1.1042   -2.4323 C   0  0  0  1  0  0  0  0  0  0  0  0
   -4.5237    0.9401   -1.5419 O   0  0  0  1  0  0  0  0  0  0  0  0
    1.0487    1.4457    0.1344 H   0  0  0  1  0  0  0  0  0  0  0  0
    0.9957   -1.4092    0.8795 H   0  0  0  1  0  0  0  0  0  0  0  0
    2.2658   -0.3165    1.3749 H   0  0  0  1  0  0  0  0  0  0  0  0
    2.0909   -0.7470   -0.3098 H   0  0  0  1  0  0  0  0  0  0  0  0
   -1.5369    0.4030   -2.1824 H   0  0  0  1  0  0  0  0  0  0  0  0
   -1.8747    2.0758   -2.5567 H   0  0  0  1  0  0  0  0  0  0  0  0
   -2.7791    0.8042   -3.3436 H   0  0  0  1  0  0  0  0  0  0  0  0
   -4.1398    3.3019    1.6037 F   0  0  0  1  0  0  0  0  0  0  0  0
   -3.3319    4.3114    1.2268 C   0  0  0  1  0  0  0  0  0  0  0  0
   -1.9715    4.0914    1.0765 C   0  0  0  1  0  0  0  0  0  0  0  0
   -1.1416    5.1287    0.6948 C   0  0  0  1  0  0  0  0  0  0  0  0
   -1.6705    6.3878    0.4572 C   0  0  0  1  0  0  0  0  0  0  0  0
   -3.0268    6.6073    0.6071 C   0  0  0  1  0  0  0  0  0  0  0  0
   -3.8590    5.5669    0.9899 C   0  0  0  1  0  0  0  0  0  0  0  0
   -1.3961    2.7180    1.3297 C   0  0  0  1  0  0  0  0  0  0  0  0
   -0.1204    4.9646    0.5860 H   0  0  0  1  0  0  0  0  0  0  0  0
   -1.0467    7.1673    0.1662 H   0  0  0  1  0  0  0  0  0  0  0  0
   -3.4230    7.5529    0.4327 H   0  0  0  1  0  0  0  0  0  0  0  0
   -4.8802    5.7311    1.0987 H   0  0  0  1  0  0  0  0  0  0  0  0
   -0.3645    2.8449    1.5837 H   0  0  0  1  0  0  0  0  0  0  0  0
   -1.9204    2.3000    2.1636 H   0  0  0  1  0  0  0  0  0  0  0  0
  1  4  1  0  0  0  0
  2  4  1  0  0  0  0
  2  5  2  0  0  0  0
  2  6  1  0  0  0  0
  3  4  1  0  0  0  0
  3  7  1  0  0  0  0
  3  8  1  0  0  0  0
  4 26  1  0  0  0  0
  6  9  1  0  0  0  0
  6 12  1  0  0  0  0
  8 10  1  0  0  0  0
  8 11  2  0  0  0  0
  9 13  1  0  0  0  0
  9 14  1  0  0  0  0
  9 15  1  0  0  0  0
 10 16  1  0  0  0  0
 10 17  1  0  0  0  0
 10 18  1  0  0  0  0
 19 20  1  0  0  0  0
 20 21  4  0  0  0  0
 20 25  4  0  0  0  0
 21 22  4  0  0  0  0
 21 26  1  0  0  0  0
 22 23  4  0  0  0  0
 22 27  1  0  0  0  0
 23 24  4  0  0  0  0
 23 28  1  0  0  0  0
 24 25  4  0  0  0  0
 24 29  1  0  0  0  0
 25 30  1  0  0  0  0
 26 31  1  0  0  0  0
 26 32  1  0  0  0  0
M  END
> <BCLConfClusterSize>
1

> <ConfClashScore>
0 

> <ConfOneFourInteractionScore>
-0.981931 

> <ConfScore>
0.33504 

> <ConfScorePBest>
0.00242249 

> <ConfTolerance>
1.22007 

> <RosettaParamsInstructions>
M  ROOT 3
M  POLY_N_BB 3
M  POLY_CA_BB 4
M  POLY_C_BB 2
M  POLY_O_BB 5
M  POLY_IGNORE 9 10 11 12 13 14 15 16 17 18 
M  POLY_UPPER 6
M  POLY_LOWER 8
M  POLY_CHG 0
M  POLY_PROPERTIES ALPHA_AA L_AA PROTEIN AROMATIC POLYMER 
M  END

$$$$



 32 32  0  0  0  0  0  0  0  0999 V2000
   -0.3912    3.0556   -0.4668 H   0  0  0  1  0  0  0  0  0  0  0  0
    1.1148    2.8511    0.9685 C   0  0  0  1  0  0  0  0  0  0  0  0
   -0.2168    1.0580   -0.0993 N   0  0  0  1  0  0  0  0  0  0  0  0
   -0.2325    2.4297    0.3865 C   0  0  0  1  0  0  0  0  0  0  0  0
    1.6044    3.9507    0.7140 O   0  0  0  1  0  0  0  0  0  0  0  0
    1.7141    1.9503    1.7632 N   0  0  0  1  0  0  0  0  0  0  0  0
   -0.7420    0.3600    0.3450 H   0  0  0  1  0  0  0  0  0  0  0  0
    0.5623    0.7667   -1.2087 C   0  0  0  1  0  0  0  0  0  0  0  0
    3.0219    2.2355    2.3345 C   0  0  0  1  0  0  0  0  0  0  0  0
    0.6330   -0.6521   -1.6994 C   0  0  0  1  0  0  0  0  0  0  0  0
    1.1660    1.6745   -1.7507 O   0  0  0  1  0  0  0  0  0  0  0  0
    1.2701    1.0989    1.9590 H   0  0  0  1  0  0  0  0  0  0  0  0
    3.3403    1.4054    2.9299 H   0  0  0  1  0  0  0  0  0  0  0  0
    2.9600    3.1106    2.9471 H   0  0  0  1  0  0  0  0  0  0  0  0
    3.7268    2.4002    1.5465 H   0  0  0  1  0  0  0  0  0  0  0  0
    1.1411   -0.6795   -2.6407 H   0  0  0  1  0  0  0  0  0  0  0  0
   -0.3579   -1.0380   -1.8179 H   0  0  0  1  0  0  0  0  0  0  0  0
    1.1661   -1.2488   -0.9891 H   0  0  0  1  0  0  0  0  0  0  0  0
   -4.1390    3.2984    1.5955 F   0  0  0  1  0  0  0  0  0  0  0  0
   -3.3302    4.3097    1.2252 C   0  0  0  1  0  0  0  0  0  0  0  0
   -1.9734    4.0909    1.0783 C   0  0  0  1  0  0  0  0  0  0  0  0
   -1.1418    5.1304    0.6920 C   0  0  0  1  0  0  0  0  0  0  0  0
   -1.6684    6.3868    0.4589 C   0  0  0  1  0  0  0  0  0  0  0  0
   -3.0292    6.6061    0.6062 C   0  0  0  1  0  0  0  0  0  0  0  0
   -3.8585    5.5697    0.9914 C   0  0  0  1  0  0  0  0  0  0  0  0
   -1.3970    2.7192    1.3387 C   0  0  0  1  0  0  0  0  0  0  0  0
   -0.1214    4.9648    0.5776 H   0  0  0  1  0  0  0  0  0  0  0  0
   -1.0437    7.1676    0.1729 H   0  0  0  1  0  0  0  0  0  0  0  0
   -3.4261    7.5505    0.4269 H   0  0  0  1  0  0  0  0  0  0  0  0
   -4.8789    5.7352    1.1058 H   0  0  0  1  0  0  0  0  0  0  0  0
   -1.0448    2.6726    2.3480 H   0  0  0  1  0  0  0  0  0  0  0  0
   -2.1607    1.9842    1.1926 H   0  0  0  1  0  0  0  0  0  0  0  0
  1  4  1  0  0  0  0
  2  4  1  0  0  0  0
  2  5  2  0  0  0  0
  2  6  1  0  0  0  0
  3  4  1  0  0  0  0
  3  7  1  0  0  0  0
  3  8  1  0  0  0  0
  4 26  1  0  0  0  0
  6  9  1  0  0  0  0
  6 12  1  0  0  0  0
  8 10  1  0  0  0  0
  8 11  2  0  0  0  0
  9 13  1  0  0  0  0
  9 14  1  0  0  0  0
  9 15  1  0  0  0  0
 10 16  1  0  0  0  0
 10 17  1  0  0  0  0
 10 18  1  0  0  0  0
 19 20  1  0  0  0  0
 20 21  4  0  0  0  0
 20 25  4  0  0  0  0
 21 22  4  0  0  0  0
 21 26  1  0  0  0  0
 22 23  4  0  0  0  0
 22 27  1  0  0  0  0
 23 24  4  0  0  0  0
 23 28  1  0  0  0  0
 24 25  4  0  0  0  0
 24 29  1  0  0  0  0
 25 30  1  0  0  0  0
 26 31  1  0  0  0  0
 26 32  1  0  0  0  0
M  END
> <BCLConfClusterSize>
1

> <ConfClashScore>
0 

> <ConfOneFourInteractionScore>
-0.941392 

> <ConfScore>
0.337114 

> <ConfScorePBest>
0.00239401 

> <ConfTolerance>
1.23724 

> <RosettaParamsInstructions>
M  ROOT 3
M  POLY_N_BB 3
M  POLY_CA_BB 4
M  POLY_C_BB 2
M  POLY_O_BB 5
M  POLY_IGNORE 9 10 11 12 13 14 15 16 17 18 
M  POLY_UPPER 6
M  POLY_LOWER 8
M  POLY_CHG 0
M  POLY_PROPERTIES ALPHA_AA L_AA PROTEIN AROMATIC POLYMER 
M  END

$$$$



 32 32  0  0  0  0  0  0  0  0999 V2000
   -1.4512    2.9641    3.4372 H   0  0  0  1  0  0  0  0  0  0  0  0
   -0.5111    1.0810    3.0318 C   0  0  0  1  0  0  0  0  0  0  0  0
    0.4283    3.3774    2.7583 N   0  0  0  1  0  0  0  0  0  0  0  0
   -0.7551    2.5933    2.7141 C   0  0  0  1  0  0  0  0  0  0  0  0
    0.0506    0.3481    2.2188 O   0  0  0  1  0  0  0  0  0  0  0  0
   -0.9345    0.6065    4.2217 N   0  0  0  1  0  0  0  0  0  0  0  0
    0.4038    4.2454    3.2125 H   0  0  0  1  0  0  0  0  0  0  0  0
    1.5738    2.9727    2.2022 C   0  0  0  1  0  0  0  0  0  0  0  0
   -0.7047   -0.7859    4.5768 C   0  0  0  1  0  0  0  0  0  0  0  0
    2.7100    3.9764    2.2296 C   0  0  0  1  0  0  0  0  0  0  0  0
    1.7163    1.8607    1.6956 O   0  0  0  1  0  0  0  0  0  0  0  0
   -1.3979    1.2008    4.8482 H   0  0  0  1  0  0  0  0  0  0  0  0
    0.3476   -0.9777    4.6074 H   0  0  0  1  0  0  0  0  0  0  0  0
   -1.1614   -1.4202    3.8460 H   0  0  0  1  0  0  0  0  0  0  0  0
   -1.1312   -0.9837    5.5379 H   0  0  0  1  0  0  0  0  0  0  0  0
    2.9852    4.1768    3.2441 H   0  0  0  1  0  0  0  0  0  0  0  0
    2.3947    4.8846    1.7598 H   0  0  0  1  0  0  0  0  0  0  0  0
    3.5519    3.5761    1.7044 H   0  0  0  1  0  0  0  0  0  0  0  0
   -4.1392    3.2983    1.5955 F   0  0  0  1  0  0  0  0  0  0  0  0
   -3.3303    4.3095    1.2252 C   0  0  0  1  0  0  0  0  0  0  0  0
   -1.9735    4.0910    1.0783 C   0  0  0  1  0  0  0  0  0  0  0  0
   -1.1417    5.1304    0.6920 C   0  0  0  1  0  0  0  0  0  0  0  0
   -1.6684    6.3867    0.4589 C   0  0  0  1  0  0  0  0  0  0  0  0
   -3.0292    6.6061    0.6062 C   0  0  0  1  0  0  0  0  0  0  0  0
   -3.8585    5.5697    0.9914 C   0  0  0  1  0  0  0  0  0  0  0  0
   -1.3970    2.7194    1.3387 C   0  0  0  1  0  0  0  0  0  0  0  0
   -0.1213    4.9649    0.5776 H   0  0  0  1  0  0  0  0  0  0  0  0
   -1.0438    7.1675    0.1730 H   0  0  0  1  0  0  0  0  0  0  0  0
   -3.4261    7.5506    0.4269 H   0  0  0  1  0  0  0  0  0  0  0  0
   -4.8788    5.7352    1.1058 H   0  0  0  1  0  0  0  0  0  0  0  0
   -2.1845    1.9990    1.2630 H   0  0  0  1  0  0  0  0  0  0  0  0
   -0.6540    2.5156    0.5961 H   0  0  0  1  0  0  0  0  0  0  0  0
  1  4  1  0  0  0  0
  2  4  1  0  0  0  0
  2  5  2  0  0  0  0
  2  6  1  0  0  0  0
  3  4  1  0  0  0  0
  3  7  1  0  0  0  0
  3  8  1  0  0  0  0
  4 26  1  0  0  0  0
  6  9  1  0  0  0  0
  6 12  1  0  0  0  0
  8 10  1  0  0  0  0
  8 11  2  0  0  0  0
  9 13  1  0  0  0  0
  9 14  1  0  0  0  0
  9 15  1  0  0  0  0
 10 16  1  0  0  0  0
 10 17  1  0  0  0  0
 10 18  1  0  0  0  0
 19 20  1  0  0  0  0
 20 21  4  0  0  0  0
 20 25  4  0  0  0  0
 21 22  4  0  0  0  0
 21 26  1  0  0  0  0
 22 23  4  0  0  0  0
 22 27  1  0  0  0  0
 23 24  4  0  0  0  0
 23 28  1  0  0  0  0
 24 25  4  0  0  0  0
 24 29  1  0  0  0  0
 25 30  1  0  0  0  0
 26 31  1  0  0  0  0
 26 32  1  0  0  0  0
M  END
> <BCLConfClusterSize>
1

> <ConfClashScore>
0 

> <ConfOneFourInteractionScore>
-0.972663 

> <ConfScore>
0.355338 

> <ConfScorePBest>
0.00236553 

> <ConfTolerance>
1.06649 

> <RosettaParamsInstructions>
M  ROOT 3
M  POLY_N_BB 3
M  POLY_CA_BB 4
M  POLY_C_BB 2
M  POLY_O_BB 5
M  POLY_IGNORE 9 10 11 12 13 14 15 16 17 18 
M  POLY_UPPER 6
M  POLY_LOWER 8
M  POLY_CHG 0
M  POLY_PROPERTIES ALPHA_AA L_AA PROTEIN AROMATIC POLYMER 
M  END

$$$$



 32 32  0  0  0  0  0  0  0  0999 V2000
   -2.5508    1.9423   -0.2422 H   0  0  0  1  0  0  0  0  0  0  0  0
   -0.5833    2.0890   -0.9817 C   0  0  0  1  0  0  0  0  0  0  0  0
   -1.4900    0.3733    0.5410 N   0  0  0  1  0  0  0  0  0  0  0  0
   -1.5698    1.7714    0.1493 C   0  0  0  1  0  0  0  0  0  0  0  0
    0.5276    2.5459   -0.7158 O   0  0  0  1  0  0  0  0  0  0  0  0
   -0.9651    1.7637   -2.2261 N   0  0  0  1  0  0  0  0  0  0  0  0
   -0.7213    0.0534    1.0578 H   0  0  0  1  0  0  0  0  0  0  0  0
   -2.4707   -0.4833    0.1949 C   0  0  0  1  0  0  0  0  0  0  0  0
   -0.0944    1.7663   -3.3922 C   0  0  0  1  0  0  0  0  0  0  0  0
   -2.2855   -1.9229    0.6570 C   0  0  0  1  0  0  0  0  0  0  0  0
   -3.4599   -0.1427   -0.4526 O   0  0  0  1  0  0  0  0  0  0  0  0
   -1.9008    1.5050   -2.3599 H   0  0  0  1  0  0  0  0  0  0  0  0
    0.9124    1.5718   -3.0866 H   0  0  0  1  0  0  0  0  0  0  0  0
   -0.1432    2.7218   -3.8714 H   0  0  0  1  0  0  0  0  0  0  0  0
   -0.4123    1.0072   -4.0760 H   0  0  0  1  0  0  0  0  0  0  0  0
   -2.7860   -2.5827   -0.0206 H   0  0  0  1  0  0  0  0  0  0  0  0
   -2.6984   -2.0385    1.6373 H   0  0  0  1  0  0  0  0  0  0  0  0
   -1.2421   -2.1588    0.6788 H   0  0  0  1  0  0  0  0  0  0  0  0
   -4.1397    3.3020    1.6037 F   0  0  0  1  0  0  0  0  0  0  0  0
   -3.3318    4.3115    1.2268 C   0  0  0  1  0  0  0  0  0  0  0  0
   -1.9715    4.0914    1.0765 C   0  0  0  1  0  0  0  0  0  0  0  0
   -1.1417    5.1287    0.6949 C   0  0  0  1  0  0  0  0  0  0  0  0
   -1.6704    6.3879    0.4572 C   0  0  0  1  0  0  0  0  0  0  0  0
   -3.0268    6.6072    0.6071 C   0  0  0  1  0  0  0  0  0  0  0  0
   -3.8592    5.5669    0.9899 C   0  0  0  1  0  0  0  0  0  0  0  0
   -1.3961    2.7179    1.3298 C   0  0  0  1  0  0  0  0  0  0  0  0
   -0.1206    4.9645    0.5860 H   0  0  0  1  0  0  0  0  0  0  0  0
   -1.0466    7.1674    0.1662 H   0  0  0  1  0  0  0  0  0  0  0  0
   -3.4229    7.5529    0.4327 H   0  0  0  1  0  0  0  0  0  0  0  0
   -4.8803    5.7311    1.0988 H   0  0  0  1  0  0  0  0  0  0  0  0
   -0.3507    2.8191    1.5343 H   0  0  0  1  0  0  0  0  0  0  0  0
   -1.8873    2.2946    2.1809 H   0  0  0  1  0  0  0  0  0  0  0  0
  1  4  1  0  0  0  0
  2  4  1  0  0  0  0
  2  5  2  0  0  0  0
  2  6  1  0  0  0  0
  3  4  1  0  0  0  0
  3  7  1  0  0  0  0
  3  8  1  0  0  0  0
  4 26  1  0  0  0  0
  6  9  1  0  0  0  0
  6 12  1  0  0  0  0
  8 10  1  0  0  0  0
  8 11  2  0  0  0  0
  9 13  1  0  0  0  0
  9 14  1  0  0  0  0
  9 15  1  0  0  0  0
 10 16  1  0  0  0  0
 10 17  1  0  0  0  0
 10 18  1  0  0  0  0
 19 20  1  0  0  0  0
 20 21  4  0  0  0  0
 20 25  4  0  0  0  0
 21 22  4  0  0  0  0
 21 26  1  0  0  0  0
 22 23  4  0  0  0  0
 22 27  1  0  0  0  0
 23 24  4  0  0  0  0
 23 28  1  0  0  0  0
 24 25  4  0  0  0  0
 24 29  1  0  0  0  0
 25 30  1  0  0  0  0
 26 31  1  0  0  0  0
 26 32  1  0  0  0  0
M  END
> <BCLConfClusterSize>
1

> <ConfClashScore>
0 

> <ConfOneFourInteractionScore>
-0.97533 

> <ConfScore>
0.36158 

> <ConfScorePBest>
0.00233705 

> <ConfTolerance>
1.13199 

> <RosettaParamsInstructions>
M  ROOT 3
M  POLY_N_BB 3
M  POLY_CA_BB 4
M  POLY_C_BB 2
M  POLY_O_BB 5
M  POLY_IGNORE 9 10 11 12 13 14 15 16 17 18 
M  POLY_UPPER 6
M  POLY_LOWER 8
M  POLY_CHG 0
M  POLY_PROPERTIES ALPHA_AA L_AA PROTEIN AROMATIC POLYMER 
M  END

$$$$



 32 32  0  0  0  0  0  0  0  0999 V2000
   -0.0641    3.3314    2.8404 H   0  0  0  1  0  0  0  0  0  0  0  0
   -1.8459    2.8079    3.8129 C   0  0  0  1  0  0  0  0  0  0  0  0
   -0.1388    1.2842    2.9217 N   0  0  0  1  0  0  0  0  0  0  0  0
   -0.8034    2.5652    2.7343 C   0  0  0  1  0  0  0  0  0  0  0  0
   -2.7822    3.5818    3.6318 O   0  0  0  1  0  0  0  0  0  0  0  0
   -1.6723    2.1312    4.9493 N   0  0  0  1  0  0  0  0  0  0  0  0
    0.8401    1.2606    2.9619 H   0  0  0  1  0  0  0  0  0  0  0  0
   -0.8424    0.0958    3.0454 C   0  0  0  1  0  0  0  0  0  0  0  0
   -2.5546    2.2962    6.0948 C   0  0  0  1  0  0  0  0  0  0  0  0
   -0.0814   -1.1956    3.1550 C   0  0  0  1  0  0  0  0  0  0  0  0
   -2.0591    0.1385    3.0613 O   0  0  0  1  0  0  0  0  0  0  0  0
   -0.9247    1.5010    5.0150 H   0  0  0  1  0  0  0  0  0  0  0  0
   -2.6318    3.3350    6.3395 H   0  0  0  1  0  0  0  0  0  0  0  0
   -2.1560    1.7616    6.9316 H   0  0  0  1  0  0  0  0  0  0  0  0
   -3.5247    1.9133    5.8556 H   0  0  0  1  0  0  0  0  0  0  0  0
   -0.6348   -1.9778    2.6787 H   0  0  0  1  0  0  0  0  0  0  0  0
    0.0621   -1.4382    4.1872 H   0  0  0  1  0  0  0  0  0  0  0  0
    0.8701   -1.0902    2.6772 H   0  0  0  1  0  0  0  0  0  0  0  0
   -4.1397    3.3020    1.6037 F   0  0  0  1  0  0  0  0  0  0  0  0
   -3.3318    4.3115    1.2268 C   0  0  0  1  0  0  0  0  0  0  0  0
   -1.9715    4.0913    1.0765 C   0  0  0  1  0  0  0  0  0  0  0  0
   -1.1417    5.1287    0.6949 C   0  0  0  1  0  0  0  0  0  0  0  0
   -1.6705    6.3878    0.4572 C   0  0  0  1  0  0  0  0  0  0  0  0
   -3.0268    6.6072    0.6071 C   0  0  0  1  0  0  0  0  0  0  0  0
   -3.8591    5.5669    0.9899 C   0  0  0  1  0  0  0  0  0  0  0  0
   -1.3961    2.7179    1.3298 C   0  0  0  1  0  0  0  0  0  0  0  0
   -0.1205    4.9646    0.5860 H   0  0  0  1  0  0  0  0  0  0  0  0
   -1.0466    7.1674    0.1662 H   0  0  0  1  0  0  0  0  0  0  0  0
   -3.4229    7.5528    0.4327 H   0  0  0  1  0  0  0  0  0  0  0  0
   -4.8803    5.7311    1.0987 H   0  0  0  1  0  0  0  0  0  0  0  0
   -2.1752    1.9946    1.2083 H   0  0  0  1  0  0  0  0  0  0  0  0
   -0.6236    2.5347    0.6124 H   0  0  0  1  0  0  0  0  0  0  0  0
  1  4  1  0  0  0  0
  2  4  1  0  0  0  0
  2  5  2  0  0  0  0
  2  6  1  0  0  0  0
  3  4  1  0  0  0  0
  3  7  1  0  0  0  0
  3  8  1  0  0  0  0
  4 26  1  0  0  0  0
  6  9  1  0  0  0  0
  6 12  1  0  0  0  0
  8 10  1  0  0  0  0
  8 11  2  0  0  0  0
  9 13  1  0  0  0  0
  9 14  1  0  0  0  0
  9 15  1  0  0  0  0
 10 16  1  0  0  0  0
 10 17  1  0  0  0  0
 10 18  1  0  0  0  0
 19 20  1  0  0  0  0
 20 21  4  0  0  0  0
 20 25  4  0  0  0  0
 21 22  4  0  0  0  0
 21 26  1  0  0  0  0
 22 23  4  0  0  0  0
 22 27  1  0  0  0  0
 23 24  4  0  0  0  0
 23 28  1  0  0  0  0
 24 25  4  0  0  0  0
 24 29  1  0  0  0  0
 25 30  1  0  0  0  0
 26 31  1  0  0  0  0
 26 32  1  0  0  0  0
M  END
> <BCLConfClusterSize>
1

> <ConfClashScore>
0 

> <ConfOneFourInteractionScore>
-0.957364 

> <ConfScore>
0.378387 

> <ConfScorePBest>
0.00230857 

> <ConfTolerance>
1.16925 

> <RosettaParamsInstructions>
M  ROOT 3
M  POLY_N_BB 3
M  POLY_CA_BB 4
M  POLY_C_BB 2
M  POLY_O_BB 5
M  POLY_IGNORE 9 10 11 12 13 14 15 16 17 18 
M  POLY_UPPER 6
M  POLY_LOWER 8
M  POLY_CHG 0
M  POLY_PROPERTIES ALPHA_AA L_AA PROTEIN AROMATIC POLYMER 
M  END

$$$$



 32 32  0  0  0  0  0  0  0  0999 V2000
   -0.8008    0.9147    0.4469 H   0  0  0  1  0  0  0  0  0  0  0  0
   -2.8735    1.1035    0.1099 C   0  0  0  1  0  0  0  0  0  0  0  0
   -1.0407    2.3168   -1.0403 N   0  0  0  1  0  0  0  0  0  0  0  0
   -1.4766    1.7093    0.2082 C   0  0  0  1  0  0  0  0  0  0  0  0
   -3.0968   -0.0493    0.4769 O   0  0  0  1  0  0  0  0  0  0  0  0
   -3.8183    1.9023   -0.3945 N   0  0  0  1  0  0  0  0  0  0  0  0
   -1.2647    3.2551   -1.2132 H   0  0  0  1  0  0  0  0  0  0  0  0
   -0.3458    1.6399   -1.9589 C   0  0  0  1  0  0  0  0  0  0  0  0
   -5.1932    1.5039   -0.6568 C   0  0  0  1  0  0  0  0  0  0  0  0
   -0.0327    2.3947   -3.2362 C   0  0  0  1  0  0  0  0  0  0  0  0
    0.0250    0.4781   -1.7967 O   0  0  0  1  0  0  0  0  0  0  0  0
   -3.5665    2.8260   -0.6037 H   0  0  0  1  0  0  0  0  0  0  0  0
   -5.3102    0.4620   -0.4431 H   0  0  0  1  0  0  0  0  0  0  0  0
   -5.4269    1.6853   -1.6851 H   0  0  0  1  0  0  0  0  0  0  0  0
   -5.8536    2.0716   -0.0350 H   0  0  0  1  0  0  0  0  0  0  0  0
    0.9164    2.8795   -3.1411 H   0  0  0  1  0  0  0  0  0  0  0  0
   -0.7916    3.1282   -3.4119 H   0  0  0  1  0  0  0  0  0  0  0  0
   -0.0019    1.7089   -4.0570 H   0  0  0  1  0  0  0  0  0  0  0  0
   -4.1397    3.3019    1.6037 F   0  0  0  1  0  0  0  0  0  0  0  0
   -3.3319    4.3114    1.2268 C   0  0  0  1  0  0  0  0  0  0  0  0
   -1.9715    4.0915    1.0765 C   0  0  0  1  0  0  0  0  0  0  0  0
   -1.1416    5.1287    0.6948 C   0  0  0  1  0  0  0  0  0  0  0  0
   -1.6705    6.3877    0.4572 C   0  0  0  1  0  0  0  0  0  0  0  0
   -3.0268    6.6073    0.6071 C   0  0  0  1  0  0  0  0  0  0  0  0
   -3.8591    5.5669    0.9899 C   0  0  0  1  0  0  0  0  0  0  0  0
   -1.3961    2.7181    1.3297 C   0  0  0  1  0  0  0  0  0  0  0  0
   -0.1204    4.9645    0.5860 H   0  0  0  1  0  0  0  0  0  0  0  0
   -1.0466    7.1673    0.1662 H   0  0  0  1  0  0  0  0  0  0  0  0
   -3.4230    7.5530    0.4327 H   0  0  0  1  0  0  0  0  0  0  0  0
   -4.8802    5.7310    1.0988 H   0  0  0  1  0  0  0  0  0  0  0  0
   -0.3619    2.8442    1.5733 H   0  0  0  1  0  0  0  0  0  0  0  0
   -1.9132    2.3043    2.1702 H   0  0  0  1  0  0  0  0  0  0  0  0
  1  4  1  0  0  0  0
  2  4  1  0  0  0  0
  2  5  2  0  0  0  0
  2  6  1  0  0  0  0
  3  4  1  0  0  0  0
  3  7  1  0  0  0  0
  3  8  1  0  0  0  0
  4 26  1  0  0  0  0
  6  9  1  0  0  0  0
  6 12  1  0  0  0  0
  8 10  1  0  0  0  0
  8 11  2  0  0  0  0
  9 13  1  0  0  0  0
  9 14  1  0  0  0  0
  9 15  1  0  0  0  0
 10 16  1  0  0  0  0
 10 17  1  0  0  0  0
 10 18  1  0  0  0  0
 19 20  1  0  0  0  0
 20 21  4  0  0  0  0
 20 25  4  0  0  0  0
 21 22  4  0  0  0  0
 21 26  1  0  0  0  0
 22 23  4  0  0  0  0
 22 27  1  0  0  0  0
 23 24  4  0  0  0  0
 23 28  1  0  0  0  0
 24 25  4  0  0  0  0
 24 29  1  0  0  0  0
 25 30  1  0  0  0  0
 26 31  1  0  0  0  0
 26 32  1  0  0  0  0
M  END
> <BCLConfClusterSize>
1

> <ConfClashScore>
0 

> <ConfOneFourInteractionScore>
-0.950605 

> <ConfScore>
0.391379 

> <ConfScorePBest>
0.00228009 

> <ConfTolerance>
1.18498 

> <RosettaParamsInstructions>
M  ROOT 3
M  POLY_N_BB 3
M  POLY_CA_BB 4
M  POLY_C_BB 2
M  POLY_O_BB 5
M  POLY_IGNORE 9 10 11 12 13 14 15 16 17 18 
M  POLY_UPPER 6
M  POLY_LOWER 8
M  POLY_CHG 0
M  POLY_PROPERTIES ALPHA_AA L_AA PROTEIN AROMATIC POLYMER 
M  END

$$$$



 32 32  0  0  0  0  0  0  0  0999 V2000
   -0.0670    1.6137    2.5271 H   0  0  0  1  0  0  0  0  0  0  0  0
    0.8988    3.4503    2.2054 C   0  0  0  1  0  0  0  0  0  0  0  0
   -0.9823    3.0272    3.7287 N   0  0  0  1  0  0  0  0  0  0  0  0
   -0.3632    2.6387    2.4461 C   0  0  0  1  0  0  0  0  0  0  0  0
    1.3165    3.6438    1.0648 O   0  0  0  1  0  0  0  0  0  0  0  0
    1.5391    3.9459    3.2682 N   0  0  0  1  0  0  0  0  0  0  0  0
   -1.1564    2.3171    4.3813 H   0  0  0  1  0  0  0  0  0  0  0  0
   -1.3228    4.2719    4.0663 C   0  0  0  1  0  0  0  0  0  0  0  0
    2.7793    4.6978    3.1477 C   0  0  0  1  0  0  0  0  0  0  0  0
   -2.0653    4.4023    5.3942 C   0  0  0  1  0  0  0  0  0  0  0  0
   -1.1337    5.2520    3.3470 O   0  0  0  1  0  0  0  0  0  0  0  0
    1.1604    3.7980    4.1599 H   0  0  0  1  0  0  0  0  0  0  0  0
    3.6086    4.0545    3.3561 H   0  0  0  1  0  0  0  0  0  0  0  0
    2.7734    5.5091    3.8453 H   0  0  0  1  0  0  0  0  0  0  0  0
    2.8677    5.0824    2.1532 H   0  0  0  1  0  0  0  0  0  0  0  0
   -2.1584    5.4367    5.6514 H   0  0  0  1  0  0  0  0  0  0  0  0
   -1.5185    3.8925    6.1598 H   0  0  0  1  0  0  0  0  0  0  0  0
   -3.0393    3.9689    5.3020 H   0  0  0  1  0  0  0  0  0  0  0  0
   -4.1398    3.3019    1.6037 F   0  0  0  1  0  0  0  0  0  0  0  0
   -3.3319    4.3114    1.2268 C   0  0  0  1  0  0  0  0  0  0  0  0
   -1.9716    4.0914    1.0765 C   0  0  0  1  0  0  0  0  0  0  0  0
   -1.1416    5.1287    0.6948 C   0  0  0  1  0  0  0  0  0  0  0  0
   -1.6705    6.3878    0.4572 C   0  0  0  1  0  0  0  0  0  0  0  0
   -3.0268    6.6073    0.6071 C   0  0  0  1  0  0  0  0  0  0  0  0
   -3.8590    5.5669    0.9899 C   0  0  0  1  0  0  0  0  0  0  0  0
   -1.3962    2.7180    1.3297 C   0  0  0  1  0  0  0  0  0  0  0  0
   -0.1204    4.9645    0.5860 H   0  0  0  1  0  0  0  0  0  0  0  0
   -1.0467    7.1674    0.1662 H   0  0  0  1  0  0  0  0  0  0  0  0
   -3.4230    7.5529    0.4327 H   0  0  0  1  0  0  0  0  0  0  0  0
   -4.8802    5.7310    1.0987 H   0  0  0  1  0  0  0  0  0  0  0  0
   -2.2041    2.0628    1.5805 H   0  0  0  1  0  0  0  0  0  0  0  0
   -0.9319    2.3829    0.4259 H   0  0  0  1  0  0  0  0  0  0  0  0
  1  4  1  0  0  0  0
  2  4  1  0  0  0  0
  2  5  2  0  0  0  0
  2  6  1  0  0  0  0
  3  4  1  0  0  0  0
  3  7  1  0  0  0  0
  3  8  1  0  0  0  0
  4 26  1  0  0  0  0
  6  9  1  0  0  0  0
  6 12  1  0  0  0  0
  8 10  1  0  0  0  0
  8 11  2  0  0  0  0
  9 13  1  0  0  0  0
  9 14  1  0  0  0  0
  9 15  1  0  0  0  0
 10 16  1  0  0  0  0
 10 17  1  0  0  0  0
 10 18  1  0  0  0  0
 19 20  1  0  0  0  0
 20 21  4  0  0  0  0
 20 25  4  0  0  0  0
 21 22  4  0  0  0  0
 21 26  1  0  0  0  0
 22 23  4  0  0  0  0
 22 27  1  0  0  0  0
 23 24  4  0  0  0  0
 23 28  1  0  0  0  0
 24 25  4  0  0  0  0
 24 29  1  0  0  0  0
 25 30  1  0  0  0  0
 26 31  1  0  0  0  0
 26 32  1  0  0  0  0
M  END
> <BCLConfClusterSize>
1

> <ConfClashScore>
0 

> <ConfOneFourInteractionScore>
-0.948009 

> <ConfScore>
0.412995 

> <ConfScorePBest>
0.00225161 

> <ConfTolerance>
1.34013 

> <RosettaParamsInstructions>
M  ROOT 3
M  POLY_N_BB 3
M  POLY_CA_BB 4
M  POLY_C_BB 2
M  POLY_O_BB 5
M  POLY_IGNORE 9 10 11 12 13 14 15 16 17 18 
M  POLY_UPPER 6
M  POLY_LOWER 8
M  POLY_CHG 0
M  POLY_PROPERTIES ALPHA_AA L_AA PROTEIN AROMATIC POLYMER 
M  END

$$$$



 32 32  0  0  0  0  0  0  0  0999 V2000
   -2.0739    2.5149    3.3328 H   0  0  0  1  0  0  0  0  0  0  0  0
   -0.5919    1.0350    3.0369 C   0  0  0  1  0  0  0  0  0  0  0  0
   -0.2177    3.4055    3.4276 N   0  0  0  1  0  0  0  0  0  0  0  0
   -1.1350    2.4505    2.8239 C   0  0  0  1  0  0  0  0  0  0  0  0
   -1.3661    0.0949    2.8780 O   0  0  0  1  0  0  0  0  0  0  0  0
    0.6909    0.9403    3.3811 N   0  0  0  1  0  0  0  0  0  0  0  0
    0.4253    3.8514    2.8375 H   0  0  0  1  0  0  0  0  0  0  0  0
   -0.1862    3.7203    4.7256 C   0  0  0  1  0  0  0  0  0  0  0  0
    1.3449   -0.3414    3.5983 C   0  0  0  1  0  0  0  0  0  0  0  0
   -1.1022    2.9102    5.6223 C   0  0  0  1  0  0  0  0  0  0  0  0
    0.5322    4.6058    5.1818 O   0  0  0  1  0  0  0  0  0  0  0  0
    1.2127    1.7624    3.4919 H   0  0  0  1  0  0  0  0  0  0  0  0
    1.2350   -0.9510    2.7258 H   0  0  0  1  0  0  0  0  0  0  0  0
    0.8957   -0.8334    4.4356 H   0  0  0  1  0  0  0  0  0  0  0  0
    2.3849   -0.1824    3.7932 H   0  0  0  1  0  0  0  0  0  0  0  0
   -1.8172    3.5597    6.0826 H   0  0  0  1  0  0  0  0  0  0  0  0
   -0.5221    2.4251    6.3793 H   0  0  0  1  0  0  0  0  0  0  0  0
   -1.6136    2.1743    5.0377 H   0  0  0  1  0  0  0  0  0  0  0  0
   -4.1391    3.2984    1.5955 F   0  0  0  1  0  0  0  0  0  0  0  0
   -3.3302    4.3096    1.2252 C   0  0  0  1  0  0  0  0  0  0  0  0
   -1.9734    4.0909    1.0783 C   0  0  0  1  0  0  0  0  0  0  0  0
   -1.1418    5.1304    0.6920 C   0  0  0  1  0  0  0  0  0  0  0  0
   -1.6684    6.3868    0.4589 C   0  0  0  1  0  0  0  0  0  0  0  0
   -3.0291    6.6060    0.6062 C   0  0  0  1  0  0  0  0  0  0  0  0
   -3.8586    5.5697    0.9914 C   0  0  0  1  0  0  0  0  0  0  0  0
   -1.3969    2.7193    1.3387 C   0  0  0  1  0  0  0  0  0  0  0  0
   -0.1214    4.9649    0.5776 H   0  0  0  1  0  0  0  0  0  0  0  0
   -1.0437    7.1676    0.1729 H   0  0  0  1  0  0  0  0  0  0  0  0
   -3.4260    7.5505    0.4269 H   0  0  0  1  0  0  0  0  0  0  0  0
   -4.8789    5.7352    1.1058 H   0  0  0  1  0  0  0  0  0  0  0  0
   -2.0864    1.9856    0.9763 H   0  0  0  1  0  0  0  0  0  0  0  0
   -0.4716    2.6325    0.8085 H   0  0  0  1  0  0  0  0  0  0  0  0
  1  4  1  0  0  0  0
  2  4  1  0  0  0  0
  2  5  2  0  0  0  0
  2  6  1  0  0  0  0
  3  4  1  0  0  0  0
  3  7  1  0  0  0  0
  3  8  1  0  0  0  0
  4 26  1  0  0  0  0
  6  9  1  0  0  0  0
  6 12  1  0  0  0  0
  8 10  1  0  0  0  0
  8 11  2  0  0  0  0
  9 13  1  0  0  0  0
  9 14  1  0  0  0  0
  9 15  1  0  0  0  0
 10 16  1  0  0  0  0
 10 17  1  0  0  0  0
 10 18  1  0  0  0  0
 19 20  1  0  0  0  0
 20 21  4  0  0  0  0
 20 25  4  0  0  0  0
 21 22  4  0  0  0  0
 21 26  1  0  0  0  0
 22 23  4  0  0  0  0
 22 27  1  0  0  0  0
 23 24  4  0  0  0  0
 23 28  1  0  0  0  0
 24 25  4  0  0  0  0
 24 29  1  0  0  0  0
 25 30  1  0  0  0  0
 26 31  1  0  0  0  0
 26 32  1  0  0  0  0
M  END
> <BCLConfClusterSize>
1

> <ConfClashScore>
0 

> <ConfOneFourInteractionScore>
-0.94165 

> <ConfScore>
0.419523 

> <ConfScorePBest>
0.00222313 

> <ConfTolerance>
1.33998 

> <RosettaParamsInstructions>
M  ROOT 3
M  POLY_N_BB 3
M  POLY_CA_BB 4
M  POLY_C_BB 2
M  POLY_O_BB 5
M  POLY_IGNORE 9 10 11 12 13 14 15 16 17 18 
M  POLY_UPPER 6
M  POLY_LOWER 8
M  POLY_CHG 0
M  POLY_PROPERTIES ALPHA_AA L_AA PROTEIN AROMATIC POLYMER 
M  END

$$$$



 32 32  0  0  0  0  0  0  0  0999 V2000
   -0.2875    2.2858    3.0867 H   0  0  0  1  0  0  0  0  0  0  0  0
   -1.9275    3.4856    3.6567 C   0  0  0  1  0  0  0  0  0  0  0  0
   -1.9906    1.1159    3.0972 N   0  0  0  1  0  0  0  0  0  0  0  0
   -1.3199    2.3761    2.8206 C   0  0  0  1  0  0  0  0  0  0  0  0
   -3.0535    3.3881    4.1161 O   0  0  0  1  0  0  0  0  0  0  0  0
   -1.1534    4.5574    3.8495 N   0  0  0  1  0  0  0  0  0  0  0  0
   -2.9609    1.0803    2.9641 H   0  0  0  1  0  0  0  0  0  0  0  0
   -1.3847    0.0047    3.5184 C   0  0  0  1  0  0  0  0  0  0  0  0
   -1.6898    5.7362    4.5133 C   0  0  0  1  0  0  0  0  0  0  0  0
   -2.2841   -1.1902    3.7401 C   0  0  0  1  0  0  0  0  0  0  0  0
   -0.1727   -0.0624    3.7192 O   0  0  0  1  0  0  0  0  0  0  0  0
   -0.2225    4.5497    3.5433 H   0  0  0  1  0  0  0  0  0  0  0  0
   -0.9725    6.5289    4.4682 H   0  0  0  1  0  0  0  0  0  0  0  0
   -1.9007    5.5042    5.5364 H   0  0  0  1  0  0  0  0  0  0  0  0
   -2.5905    6.0422    4.0235 H   0  0  0  1  0  0  0  0  0  0  0  0
   -1.6943   -2.0298    4.0434 H   0  0  0  1  0  0  0  0  0  0  0  0
   -2.7963   -1.4244    2.8303 H   0  0  0  1  0  0  0  0  0  0  0  0
   -2.9983   -0.9620    4.5035 H   0  0  0  1  0  0  0  0  0  0  0  0
   -4.1391    3.2983    1.5955 F   0  0  0  1  0  0  0  0  0  0  0  0
   -3.3303    4.3096    1.2252 C   0  0  0  1  0  0  0  0  0  0  0  0
   -1.9735    4.0910    1.0783 C   0  0  0  1  0  0  0  0  0  0  0  0
   -1.1416    5.1304    0.6920 C   0  0  0  1  0  0  0  0  0  0  0  0
   -1.6684    6.3867    0.4589 C   0  0  0  1  0  0  0  0  0  0  0  0
   -3.0292    6.6062    0.6062 C   0  0  0  1  0  0  0  0  0  0  0  0
   -3.8584    5.5697    0.9914 C   0  0  0  1  0  0  0  0  0  0  0  0
   -1.3971    2.7194    1.3387 C   0  0  0  1  0  0  0  0  0  0  0  0
   -0.1213    4.9648    0.5776 H   0  0  0  1  0  0  0  0  0  0  0  0
   -1.0438    7.1676    0.1730 H   0  0  0  1  0  0  0  0  0  0  0  0
   -3.4261    7.5506    0.4269 H   0  0  0  1  0  0  0  0  0  0  0  0
   -4.8788    5.7352    1.1058 H   0  0  0  1  0  0  0  0  0  0  0  0
   -2.0140    1.9928    0.8525 H   0  0  0  1  0  0  0  0  0  0  0  0
   -0.4096    2.6814    0.9285 H   0  0  0  1  0  0  0  0  0  0  0  0
  1  4  1  0  0  0  0
  2  4  1  0  0  0  0
  2  5  2  0  0  0  0
  2  6  1  0  0  0  0
  3  4  1  0  0  0  0
  3  7  1  0  0  0  0
  3  8  1  0  0  0  0
  4 26  1  0  0  0  0
  6  9  1  0  0  0  0
  6 12  1  0  0  0  0
  8 10  1  0  0  0  0
  8 11  2  0  0  0  0
  9 13  1  0  0  0  0
  9 14  1  0  0  0  0
  9 15  1  0  0  0  0
 10 16  1  0  0  0  0
 10 17  1  0  0  0  0
 10 18  1  0  0  0  0
 19 20  1  0  0  0  0
 20 21  4  0  0  0  0
 20 25  4  0  0  0  0
 21 22  4  0  0  0  0
 21 26  1  0  0  0  0
 22 23  4  0  0  0  0
 22 27  1  0  0  0  0
 23 24  4  0  0  0  0
 23 28  1  0  0  0  0
 24 25  4  0  0  0  0
 24 29  1  0  0  0  0
 25 30  1  0  0  0  0
 26 31  1  0  0  0  0
 26 32  1  0  0  0  0
M  END
> <BCLConfClusterSize>
1

> <ConfClashScore>
0 

> <ConfOneFourInteractionScore>
-0.97253 

> <ConfScore>
0.431203 

> <ConfScorePBest>
0.00219465 

> <ConfTolerance>
1.78387 

> <RosettaParamsInstructions>
M  ROOT 3
M  POLY_N_BB 3
M  POLY_CA_BB 4
M  POLY_C_BB 2
M  POLY_O_BB 5
M  POLY_IGNORE 9 10 11 12 13 14 15 16 17 18 
M  POLY_UPPER 6
M  POLY_LOWER 8
M  POLY_CHG 0
M  POLY_PROPERTIES ALPHA_AA L_AA PROTEIN AROMATIC POLYMER 
M  END

$$$$



 32 32  0  0  0  0  0  0  0  0999 V2000
   -0.8707    0.9674    0.2307 H   0  0  0  1  0  0  0  0  0  0  0  0
   -2.7758    1.6576   -0.4078 C   0  0  0  1  0  0  0  0  0  0  0  0
   -0.6544    2.6279   -1.0109 N   0  0  0  1  0  0  0  0  0  0  0  0
   -1.3529    1.9034    0.0403 C   0  0  0  1  0  0  0  0  0  0  0  0
   -3.3743    2.4871   -1.0915 O   0  0  0  1  0  0  0  0  0  0  0  0
   -3.3676    0.5036   -0.0358 N   0  0  0  1  0  0  0  0  0  0  0  0
   -1.1951    3.1630   -1.6286 H   0  0  0  1  0  0  0  0  0  0  0  0
    0.6686    2.6184   -1.1972 C   0  0  0  1  0  0  0  0  0  0  0  0
   -4.7224    0.2467   -0.5010 C   0  0  0  1  0  0  0  0  0  0  0  0
    1.4683    1.8023   -0.2005 C   0  0  0  1  0  0  0  0  0  0  0  0
    1.2195    3.2257   -2.1116 O   0  0  0  1  0  0  0  0  0  0  0  0
   -2.8985   -0.1432    0.5316 H   0  0  0  1  0  0  0  0  0  0  0  0
   -5.2457    1.1741   -0.6063 H   0  0  0  1  0  0  0  0  0  0  0  0
   -5.2317   -0.3713    0.2086 H   0  0  0  1  0  0  0  0  0  0  0  0
   -4.6859   -0.2514   -1.4472 H   0  0  0  1  0  0  0  0  0  0  0  0
    0.8000    1.2551    0.4311 H   0  0  0  1  0  0  0  0  0  0  0  0
    2.0676    2.4570    0.3971 H   0  0  0  1  0  0  0  0  0  0  0  0
    2.1018    1.1187   -0.7262 H   0  0  0  1  0  0  0  0  0  0  0  0
   -4.1398    3.3019    1.6037 F   0  0  0  1  0  0  0  0  0  0  0  0
   -3.3319    4.3114    1.2268 C   0  0  0  1  0  0  0  0  0  0  0  0
   -1.9716    4.0914    1.0765 C   0  0  0  1  0  0  0  0  0  0  0  0
   -1.1416    5.1287    0.6948 C   0  0  0  1  0  0  0  0  0  0  0  0
   -1.6705    6.3878    0.4572 C   0  0  0  1  0  0  0  0  0  0  0  0
   -3.0268    6.6073    0.6071 C   0  0  0  1  0  0  0  0  0  0  0  0
   -3.8590    5.5669    0.9899 C   0  0  0  1  0  0  0  0  0  0  0  0
   -1.3962    2.7180    1.3297 C   0  0  0  1  0  0  0  0  0  0  0  0
   -0.1204    4.9645    0.5860 H   0  0  0  1  0  0  0  0  0  0  0  0
   -1.0467    7.1674    0.1662 H   0  0  0  1  0  0  0  0  0  0  0  0
   -3.4230    7.5529    0.4327 H   0  0  0  1  0  0  0  0  0  0  0  0
   -4.8802    5.7310    1.0987 H   0  0  0  1  0  0  0  0  0  0  0  0
   -0.4028    2.8193    1.7143 H   0  0  0  1  0  0  0  0  0  0  0  0
   -2.0064    2.2087    2.0462 H   0  0  0  1  0  0  0  0  0  0  0  0
  1  4  1  0  0  0  0
  2  4  1  0  0  0  0
  2  5  2  0  0  0  0
  2  6  1  0  0  0  0
  3  4  1  0  0  0  0
  3  7  1  0  0  0  0
  3  8  1  0  0  0  0
  4 26  1  0  0  0  0
  6  9  1  0  0  0  0
  6 12  1  0  0  0  0
  8 10  1  0  0  0  0
  8 11  2  0  0  0  0
  9 13  1  0  0  0  0
  9 14  1  0  0  0  0
  9 15  1  0  0  0  0
 10 16  1  0  0  0  0
 10 17  1  0  0  0  0
 10 18  1  0  0  0  0
 19 20  1  0  0  0  0
 20 21  4  0  0  0  0
 20 25  4  0  0  0  0
 21 22  4  0  0  0  0
 21 26  1  0  0  0  0
 22 23  4  0  0  0  0
 22 27  1  0  0  0  0
 23 24  4  0  0  0  0
 23 28  1  0  0  0  0
 24 25  4  0  0  0  0
 24 29  1  0  0  0  0
 25 30  1  0  0  0  0
 26 31  1  0  0  0  0
 26 32  1  0  0  0  0
M  END
> <BCLConfClusterSize>
1

> <ConfClashScore>
0 

> <ConfOneFourInteractionScore>
-0.982677 

> <ConfScore>
0.453284 

> <ConfScorePBest>
0.00216617 

> <ConfTolerance>
2.27436 

> <RosettaParamsInstructions>
M  ROOT 3
M  POLY_N_BB 3
M  POLY_CA_BB 4
M  POLY_C_BB 2
M  POLY_O_BB 5
M  POLY_IGNORE 9 10 11 12 13 14 15 16 17 18 
M  POLY_UPPER 6
M  POLY_LOWER 8
M  POLY_CHG 0
M  POLY_PROPERTIES ALPHA_AA L_AA PROTEIN AROMATIC POLYMER 
M  END

$$$$
