


 32 32  0  0  0  0  0  0  0  0999 V2000
   -0.3326    2.8443   -0.4955 H   0  0  0  1  0  0  0  0  0  0  0  0
    0.0030    0.9035    0.2608 C   0  0  0  1  0  0  0  0  0  0  0  0
   -2.0509    1.7649   -0.8363 N   0  0  0  1  0  0  0  0  0  0  0  0
   -0.9135    2.0998    0.0076 C   0  0  0  1  0  0  0  0  0  0  0  0
    1.2258    1.0196    0.2062 O   0  0  0  1  0  0  0  0  0  0  0  0
   -0.6276   -0.2642    0.4589 N   0  0  0  1  0  0  0  0  0  0  0  0
   -2.9460    1.8579   -0.4482 H   0  0  0  1  0  0  0  0  0  0  0  0
   -1.9667    1.3403   -2.1003 C   0  0  0  1  0  0  0  0  0  0  0  0
    0.0340   -1.5432    0.6690 C   0  0  0  1  0  0  0  0  0  0  0  0
   -3.2726    0.9476   -2.7918 C   0  0  0  1  0  0  0  0  0  0  0  0
   -0.8983    1.1856   -2.6686 O   0  0  0  1  0  0  0  0  0  0  0  0
   -1.6075   -0.2550    0.4623 H   0  0  0  1  0  0  0  0  0  0  0  0
    0.9661   -1.3851    1.1702 H   0  0  0  1  0  0  0  0  0  0  0  0
    0.2126   -2.0117   -0.2763 H   0  0  0  1  0  0  0  0  0  0  0  0
   -0.5901   -2.1732    1.2676 H   0  0  0  1  0  0  0  0  0  0  0  0
   -3.7764    0.2054   -2.2085 H   0  0  0  1  0  0  0  0  0  0  0  0
   -3.0571    0.5524   -3.7624 H   0  0  0  1  0  0  0  0  0  0  0  0
   -3.8982    1.8103   -2.8882 H   0  0  0  1  0  0  0  0  0  0  0  0
   -1.6228    7.5417    0.7261 F   0  0  0  1  0  0  0  0  0  0  0  0
   -2.2608    6.3603    0.8314 C   0  0  0  1  0  0  0  0  0  0  0  0
   -1.5345    5.1943    1.0172 C   0  0  0  1  0  0  0  0  0  0  0  0
   -2.1888    3.9813    1.1199 C   0  0  0  1  0  0  0  0  0  0  0  0
   -3.5719    3.9313    1.0424 C   0  0  0  1  0  0  0  0  0  0  0  0
   -4.2963    5.0937    0.8570 C   0  0  0  1  0  0  0  0  0  0  0  0
   -3.6399    6.3103    0.7541 C   0  0  0  1  0  0  0  0  0  0  0  0
   -1.3975    2.7098    1.3166 C   0  0  0  1  0  0  0  0  0  0  0  0
   -0.4971    5.2324    1.0794 H   0  0  0  1  0  0  0  0  0  0  0  0
   -4.0646    3.0190    1.1236 H   0  0  0  1  0  0  0  0  0  0  0  0
   -5.3338    5.0556    0.7949 H   0  0  0  1  0  0  0  0  0  0  0  0
   -4.1852    7.1855    0.6187 H   0  0  0  1  0  0  0  0  0  0  0  0
   -0.5456    2.9296    1.9254 H   0  0  0  1  0  0  0  0  0  0  0  0
   -2.0187    1.9959    1.8159 H   0  0  0  1  0  0  0  0  0  0  0  0
  1  4  1  0  0  0  0
  2  4  1  0  0  0  0
  2  5  2  0  0  0  0
  2  6  1  0  0  0  0
  3  4  1  0  0  0  0
  3  7  1  0  0  0  0
  3  8  1  0  0  0  0
  4 26  1  0  0  0  0
  6  9  1  0  0  0  0
  6 12  1  0  0  0  0
  8 10  1  0  0  0  0
  8 11  2  0  0  0  0
  9 13  1  0  0  0  0
  9 14  1  0  0  0  0
  9 15  1  0  0  0  0
 10 16  1  0  0  0  0
 10 17  1  0  0  0  0
 10 18  1  0  0  0  0
 19 20  1  0  0  0  0
 20 21  4  0  0  0  0
 20 25  4  0  0  0  0
 21 22  4  0  0  0  0
 21 27  1  0  0  0  0
 22 23  4  0  0  0  0
 22 26  1  0  0  0  0
 23 24  4  0  0  0  0
 23 28  1  0  0  0  0
 24 25  4  0  0  0  0
 24 29  1  0  0  0  0
 25 30  1  0  0  0  0
 26 31  1  0  0  0  0
 26 32  1  0  0  0  0
M  END
> <BCLConfClusterSize>
1

> <ConfClashScore>
0 

> <ConfOneFourInteractionScore>
-0.960318 

> <ConfScore>
-0.305883 

> <ConfScorePBest>
0.00783383 

> <ConfTolerance>
0.145512 

> <RosettaParamsInstructions>
M  ROOT 3
M  POLY_N_BB 3
M  POLY_CA_BB 4
M  POLY_C_BB 2
M  POLY_O_BB 5
M  POLY_IGNORE 9 10 11 12 13 14 15 16 17 18 
M  POLY_UPPER 6
M  POLY_LOWER 8
M  POLY_CHG 0
M  POLY_PROPERTIES ALPHA_AA L_AA PROTEIN AROMATIC POLYMER 
M  END

$$$$



 32 32  0  0  0  0  0  0  0  0999 V2000
   -0.6091    2.4915   -0.6200 H   0  0  0  1  0  0  0  0  0  0  0  0
   -0.5409    0.5848    0.2933 C   0  0  0  1  0  0  0  0  0  0  0  0
   -2.5103    1.6797   -0.6472 N   0  0  0  1  0  0  0  0  0  0  0  0
   -1.2384    1.9104    0.0213 C   0  0  0  1  0  0  0  0  0  0  0  0
    0.6630    0.4356    0.0882 O   0  0  0  1  0  0  0  0  0  0  0  0
   -1.3595   -0.3686    0.7655 N   0  0  0  1  0  0  0  0  0  0  0  0
   -3.3181    2.0998   -0.2848 H   0  0  0  1  0  0  0  0  0  0  0  0
   -2.6159    0.9076   -1.7486 C   0  0  0  1  0  0  0  0  0  0  0  0
   -1.0303   -1.7594    1.0401 C   0  0  0  1  0  0  0  0  0  0  0  0
   -3.9899    0.7285   -2.3645 C   0  0  0  1  0  0  0  0  0  0  0  0
   -1.6282    0.3636   -2.2406 O   0  0  0  1  0  0  0  0  0  0  0  0
   -2.2838   -0.0973    0.9458 H   0  0  0  1  0  0  0  0  0  0  0  0
    0.0218   -1.8501    1.2121 H   0  0  0  1  0  0  0  0  0  0  0  0
   -1.3078   -2.3635    0.2017 H   0  0  0  1  0  0  0  0  0  0  0  0
   -1.5630   -2.0870    1.9083 H   0  0  0  1  0  0  0  0  0  0  0  0
   -4.6473    0.2824   -1.6477 H   0  0  0  1  0  0  0  0  0  0  0  0
   -3.9157    0.0945   -3.2232 H   0  0  0  1  0  0  0  0  0  0  0  0
   -4.3763    1.6824   -2.6572 H   0  0  0  1  0  0  0  0  0  0  0  0
   -1.6268    7.5487    0.7250 F   0  0  0  1  0  0  0  0  0  0  0  0
   -2.2607    6.3650    0.8308 C   0  0  0  1  0  0  0  0  0  0  0  0
   -1.5303    5.2017    1.0166 C   0  0  0  1  0  0  0  0  0  0  0  0
   -2.1803    3.9864    1.1198 C   0  0  0  1  0  0  0  0  0  0  0  0
   -3.5633    3.9316    1.0429 C   0  0  0  1  0  0  0  0  0  0  0  0
   -4.2918    5.0914    0.8576 C   0  0  0  1  0  0  0  0  0  0  0  0
   -3.6396    6.3102    0.7541 C   0  0  0  1  0  0  0  0  0  0  0  0
   -1.4379    2.6859    1.3169 C   0  0  0  1  0  0  0  0  0  0  0  0
   -0.4929    5.2433    1.0783 H   0  0  0  1  0  0  0  0  0  0  0  0
   -4.0527    3.0176    1.1246 H   0  0  0  1  0  0  0  0  0  0  0  0
   -5.3291    5.0497    0.7959 H   0  0  0  1  0  0  0  0  0  0  0  0
   -4.1880    7.1835    0.6187 H   0  0  0  1  0  0  0  0  0  0  0  0
   -0.4773    2.9022    1.7357 H   0  0  0  1  0  0  0  0  0  0  0  0
   -1.9947    2.0755    1.9969 H   0  0  0  1  0  0  0  0  0  0  0  0
  1  4  1  0  0  0  0
  2  4  1  0  0  0  0
  2  5  2  0  0  0  0
  2  6  1  0  0  0  0
  3  4  1  0  0  0  0
  3  7  1  0  0  0  0
  3  8  1  0  0  0  0
  4 26  1  0  0  0  0
  6  9  1  0  0  0  0
  6 12  1  0  0  0  0
  8 10  1  0  0  0  0
  8 11  2  0  0  0  0
  9 13  1  0  0  0  0
  9 14  1  0  0  0  0
  9 15  1  0  0  0  0
 10 16  1  0  0  0  0
 10 17  1  0  0  0  0
 10 18  1  0  0  0  0
 19 20  1  0  0  0  0
 20 21  4  0  0  0  0
 20 25  4  0  0  0  0
 21 22  4  0  0  0  0
 21 27  1  0  0  0  0
 22 23  4  0  0  0  0
 22 26  1  0  0  0  0
 23 24  4  0  0  0  0
 23 28  1  0  0  0  0
 24 25  4  0  0  0  0
 24 29  1  0  0  0  0
 25 30  1  0  0  0  0
 26 31  1  0  0  0  0
 26 32  1  0  0  0  0
M  END
> <BCLConfClusterSize>
1

> <ConfClashScore>
0 

> <ConfOneFourInteractionScore>
-0.960318 

> <ConfScore>
-0.305883 

> <ConfScorePBest>
0.00780535 

> <ConfTolerance>
0.271319 

> <RosettaParamsInstructions>
M  ROOT 3
M  POLY_N_BB 3
M  POLY_CA_BB 4
M  POLY_C_BB 2
M  POLY_O_BB 5
M  POLY_IGNORE 9 10 11 12 13 14 15 16 17 18 
M  POLY_UPPER 6
M  POLY_LOWER 8
M  POLY_CHG 0
M  POLY_PROPERTIES ALPHA_AA L_AA PROTEIN AROMATIC POLYMER 
M  END

$$$$



 32 32  0  0  0  0  0  0  0  0999 V2000
   -2.2220    2.2063    3.1989 H   0  0  0  1  0  0  0  0  0  0  0  0
   -0.4760    1.0267    2.9666 C   0  0  0  1  0  0  0  0  0  0  0  0
   -0.5240    3.3543    3.5242 N   0  0  0  1  0  0  0  0  0  0  0  0
   -1.2443    2.3266    2.7810 C   0  0  0  1  0  0  0  0  0  0  0  0
   -1.0503   -0.0613    2.9571 O   0  0  0  1  0  0  0  0  0  0  0  0
    0.8495    1.1521    3.1382 N   0  0  0  1  0  0  0  0  0  0  0  0
   -0.0291    4.0497    3.0426 H   0  0  0  1  0  0  0  0  0  0  0  0
   -0.5375    3.3496    4.8714 C   0  0  0  1  0  0  0  0  0  0  0  0
    1.7288   -0.0000    3.2695 C   0  0  0  1  0  0  0  0  0  0  0  0
    0.2680    4.4453    5.5421 C   0  0  0  1  0  0  0  0  0  0  0  0
   -1.1578    2.5176    5.5322 O   0  0  0  1  0  0  0  0  0  0  0  0
    1.2385    2.0508    3.1763 H   0  0  0  1  0  0  0  0  0  0  0  0
    1.3385   -0.8145    2.6957 H   0  0  0  1  0  0  0  0  0  0  0  0
    1.7899   -0.2862    4.2987 H   0  0  0  1  0  0  0  0  0  0  0  0
    2.7045    0.2535    2.9107 H   0  0  0  1  0  0  0  0  0  0  0  0
    1.3096    4.2897    5.3530 H   0  0  0  1  0  0  0  0  0  0  0  0
    0.0902    4.4237    6.5970 H   0  0  0  1  0  0  0  0  0  0  0  0
   -0.0273    5.3959    5.1495 H   0  0  0  1  0  0  0  0  0  0  0  0
   -1.5924    7.5248    0.7300 F   0  0  0  1  0  0  0  0  0  0  0  0
   -2.2671    6.3635    0.8306 C   0  0  0  1  0  0  0  0  0  0  0  0
   -1.5379    5.1994    1.0164 C   0  0  0  1  0  0  0  0  0  0  0  0
   -2.1893    3.9848    1.1194 C   0  0  0  1  0  0  0  0  0  0  0  0
   -3.5723    3.9314    1.0423 C   0  0  0  1  0  0  0  0  0  0  0  0
   -4.2996    5.0921    0.8570 C   0  0  0  1  0  0  0  0  0  0  0  0
   -3.6461    6.3102    0.7537 C   0  0  0  1  0  0  0  0  0  0  0  0
   -1.3949    2.7153    1.3161 C   0  0  0  1  0  0  0  0  0  0  0  0
   -0.5006    5.2399    1.0783 H   0  0  0  1  0  0  0  0  0  0  0  0
   -4.0627    3.0180    1.1239 H   0  0  0  1  0  0  0  0  0  0  0  0
   -5.3369    5.0515    0.7952 H   0  0  0  1  0  0  0  0  0  0  0  0
   -4.1935    7.1841    0.6183 H   0  0  0  1  0  0  0  0  0  0  0  0
   -1.8920    1.9194    0.8019 H   0  0  0  1  0  0  0  0  0  0  0  0
   -0.4196    2.8557    0.8990 H   0  0  0  1  0  0  0  0  0  0  0  0
  1  4  1  0  0  0  0
  2  4  1  0  0  0  0
  2  5  2  0  0  0  0
  2  6  1  0  0  0  0
  3  4  1  0  0  0  0
  3  7  1  0  0  0  0
  3  8  1  0  0  0  0
  4 26  1  0  0  0  0
  6  9  1  0  0  0  0
  6 12  1  0  0  0  0
  8 10  1  0  0  0  0
  8 11  2  0  0  0  0
  9 13  1  0  0  0  0
  9 14  1  0  0  0  0
  9 15  1  0  0  0  0
 10 16  1  0  0  0  0
 10 17  1  0  0  0  0
 10 18  1  0  0  0  0
 19 20  1  0  0  0  0
 20 21  4  0  0  0  0
 20 25  4  0  0  0  0
 21 22  4  0  0  0  0
 21 27  1  0  0  0  0
 22 23  4  0  0  0  0
 22 26  1  0  0  0  0
 23 24  4  0  0  0  0
 23 28  1  0  0  0  0
 24 25  4  0  0  0  0
 24 29  1  0  0  0  0
 25 30  1  0  0  0  0
 26 31  1  0  0  0  0
 26 32  1  0  0  0  0
M  END
> <BCLConfClusterSize>
1

> <ConfClashScore>
0 

> <ConfOneFourInteractionScore>
-0.94165 

> <ConfScore>
-0.305883 

> <ConfScorePBest>
0.00777687 

> <ConfTolerance>
0.156129 

> <RosettaParamsInstructions>
M  ROOT 3
M  POLY_N_BB 3
M  POLY_CA_BB 4
M  POLY_C_BB 2
M  POLY_O_BB 5
M  POLY_IGNORE 9 10 11 12 13 14 15 16 17 18 
M  POLY_UPPER 6
M  POLY_LOWER 8
M  POLY_CHG 0
M  POLY_PROPERTIES ALPHA_AA L_AA PROTEIN AROMATIC POLYMER 
M  END

$$$$



 32 32  0  0  0  0  0  0  0  0999 V2000
   -0.2204    2.9711   -0.4225 H   0  0  0  1  0  0  0  0  0  0  0  0
    0.1400    1.0080    0.2721 C   0  0  0  1  0  0  0  0  0  0  0  0
   -1.8729    1.8160   -0.8762 N   0  0  0  1  0  0  0  0  0  0  0  0
   -0.7909    2.1831    0.0231 C   0  0  0  1  0  0  0  0  0  0  0  0
    1.2449    1.1687    0.7638 O   0  0  0  1  0  0  0  0  0  0  0  0
   -0.3320   -0.1911   -0.0805 N   0  0  0  1  0  0  0  0  0  0  0  0
   -2.7942    2.0311   -0.6204 H   0  0  0  1  0  0  0  0  0  0  0  0
   -1.6466    1.1721   -2.0832 C   0  0  0  1  0  0  0  0  0  0  0  0
    0.4471   -1.4202   -0.1003 C   0  0  0  1  0  0  0  0  0  0  0  0
   -2.8197    0.8793   -2.9911 C   0  0  0  1  0  0  0  0  0  0  0  0
   -0.5053    0.8626   -2.3730 O   0  0  0  1  0  0  0  0  0  0  0  0
   -1.2737   -0.2473   -0.3459 H   0  0  0  1  0  0  0  0  0  0  0  0
    1.4815   -1.1852   -0.2404 H   0  0  0  1  0  0  0  0  0  0  0  0
    0.1110   -2.0423   -0.9033 H   0  0  0  1  0  0  0  0  0  0  0  0
    0.3215   -1.9367    0.8283 H   0  0  0  1  0  0  0  0  0  0  0  0
   -3.4743    0.1799   -2.5145 H   0  0  0  1  0  0  0  0  0  0  0  0
   -2.4636    0.4646   -3.9109 H   0  0  0  1  0  0  0  0  0  0  0  0
   -3.3513    1.7863   -3.1903 H   0  0  0  1  0  0  0  0  0  0  0  0
   -1.5924    7.5248    0.7300 F   0  0  0  1  0  0  0  0  0  0  0  0
   -2.2671    6.3635    0.8306 C   0  0  0  1  0  0  0  0  0  0  0  0
   -1.5379    5.1994    1.0164 C   0  0  0  1  0  0  0  0  0  0  0  0
   -2.1893    3.9848    1.1194 C   0  0  0  1  0  0  0  0  0  0  0  0
   -3.5723    3.9314    1.0423 C   0  0  0  1  0  0  0  0  0  0  0  0
   -4.2996    5.0921    0.8570 C   0  0  0  1  0  0  0  0  0  0  0  0
   -3.6461    6.3102    0.7537 C   0  0  0  1  0  0  0  0  0  0  0  0
   -1.3949    2.7152    1.3161 C   0  0  0  1  0  0  0  0  0  0  0  0
   -0.5006    5.2399    1.0783 H   0  0  0  1  0  0  0  0  0  0  0  0
   -4.0627    3.0180    1.1239 H   0  0  0  1  0  0  0  0  0  0  0  0
   -5.3369    5.0515    0.7952 H   0  0  0  1  0  0  0  0  0  0  0  0
   -4.1935    7.1841    0.6183 H   0  0  0  1  0  0  0  0  0  0  0  0
   -0.6017    2.9133    2.0063 H   0  0  0  1  0  0  0  0  0  0  0  0
   -2.0433    1.9672    1.7222 H   0  0  0  1  0  0  0  0  0  0  0  0
  1  4  1  0  0  0  0
  2  4  1  0  0  0  0
  2  5  2  0  0  0  0
  2  6  1  0  0  0  0
  3  4  1  0  0  0  0
  3  7  1  0  0  0  0
  3  8  1  0  0  0  0
  4 26  1  0  0  0  0
  6  9  1  0  0  0  0
  6 12  1  0  0  0  0
  8 10  1  0  0  0  0
  8 11  2  0  0  0  0
  9 13  1  0  0  0  0
  9 14  1  0  0  0  0
  9 15  1  0  0  0  0
 10 16  1  0  0  0  0
 10 17  1  0  0  0  0
 10 18  1  0  0  0  0
 19 20  1  0  0  0  0
 20 21  4  0  0  0  0
 20 25  4  0  0  0  0
 21 22  4  0  0  0  0
 21 27  1  0  0  0  0
 22 23  4  0  0  0  0
 22 26  1  0  0  0  0
 23 24  4  0  0  0  0
 23 28  1  0  0  0  0
 24 25  4  0  0  0  0
 24 29  1  0  0  0  0
 25 30  1  0  0  0  0
 26 31  1  0  0  0  0
 26 32  1  0  0  0  0
M  END
> <BCLConfClusterSize>
1

> <ConfClashScore>
0 

> <ConfOneFourInteractionScore>
-0.960318 

> <ConfScore>
-0.301978 

> <ConfScorePBest>
0.00774839 

> <ConfTolerance>
0.237476 

> <RosettaParamsInstructions>
M  ROOT 3
M  POLY_N_BB 3
M  POLY_CA_BB 4
M  POLY_C_BB 2
M  POLY_O_BB 5
M  POLY_IGNORE 9 10 11 12 13 14 15 16 17 18 
M  POLY_UPPER 6
M  POLY_LOWER 8
M  POLY_CHG 0
M  POLY_PROPERTIES ALPHA_AA L_AA PROTEIN AROMATIC POLYMER 
M  END

$$$$



 32 32  0  0  0  0  0  0  0  0999 V2000
   -2.2938    1.8835    3.0356 H   0  0  0  1  0  0  0  0  0  0  0  0
   -0.3291    1.1182    2.8899 C   0  0  0  1  0  0  0  0  0  0  0  0
   -1.0150    3.3719    3.6722 N   0  0  0  1  0  0  0  0  0  0  0  0
   -1.3305    2.2680    2.7726 C   0  0  0  1  0  0  0  0  0  0  0  0
   -0.6613   -0.0370    2.6281 O   0  0  0  1  0  0  0  0  0  0  0  0
    0.9145    1.4062    3.2845 N   0  0  0  1  0  0  0  0  0  0  0  0
   -0.8385    4.2480    3.2700 H   0  0  0  1  0  0  0  0  0  0  0  0
   -0.9487    3.2789    5.0012 C   0  0  0  1  0  0  0  0  0  0  0  0
    1.8686    0.3744    3.6625 C   0  0  0  1  0  0  0  0  0  0  0  0
   -0.5569    4.5486    5.7317 C   0  0  0  1  0  0  0  0  0  0  0  0
   -1.1863    2.2400    5.6116 O   0  0  0  1  0  0  0  0  0  0  0  0
    1.1938    2.3448    3.3206 H   0  0  0  1  0  0  0  0  0  0  0  0
    1.5640   -0.5634    3.2469 H   0  0  0  1  0  0  0  0  0  0  0  0
    1.9054    0.2964    4.7290 H   0  0  0  1  0  0  0  0  0  0  0  0
    2.8380    0.6315    3.2895 H   0  0  0  1  0  0  0  0  0  0  0  0
   -1.2802    5.3120    5.5342 H   0  0  0  1  0  0  0  0  0  0  0  0
    0.4048    4.8726    5.3925 H   0  0  0  1  0  0  0  0  0  0  0  0
   -0.5188    4.3573    6.7838 H   0  0  0  1  0  0  0  0  0  0  0  0
   -1.6228    7.5417    0.7261 F   0  0  0  1  0  0  0  0  0  0  0  0
   -2.2608    6.3603    0.8314 C   0  0  0  1  0  0  0  0  0  0  0  0
   -1.5345    5.1943    1.0172 C   0  0  0  1  0  0  0  0  0  0  0  0
   -2.1888    3.9813    1.1199 C   0  0  0  1  0  0  0  0  0  0  0  0
   -3.5719    3.9313    1.0424 C   0  0  0  1  0  0  0  0  0  0  0  0
   -4.2963    5.0937    0.8570 C   0  0  0  1  0  0  0  0  0  0  0  0
   -3.6399    6.3103    0.7541 C   0  0  0  1  0  0  0  0  0  0  0  0
   -1.3975    2.7098    1.3166 C   0  0  0  1  0  0  0  0  0  0  0  0
   -0.4971    5.2324    1.0794 H   0  0  0  1  0  0  0  0  0  0  0  0
   -4.0646    3.0190    1.1236 H   0  0  0  1  0  0  0  0  0  0  0  0
   -5.3338    5.0556    0.7949 H   0  0  0  1  0  0  0  0  0  0  0  0
   -4.1852    7.1855    0.6187 H   0  0  0  1  0  0  0  0  0  0  0  0
   -1.8573    1.9307    0.7451 H   0  0  0  1  0  0  0  0  0  0  0  0
   -0.4005    2.8711    0.9633 H   0  0  0  1  0  0  0  0  0  0  0  0
  1  4  1  0  0  0  0
  2  4  1  0  0  0  0
  2  5  2  0  0  0  0
  2  6  1  0  0  0  0
  3  4  1  0  0  0  0
  3  7  1  0  0  0  0
  3  8  1  0  0  0  0
  4 26  1  0  0  0  0
  6  9  1  0  0  0  0
  6 12  1  0  0  0  0
  8 10  1  0  0  0  0
  8 11  2  0  0  0  0
  9 13  1  0  0  0  0
  9 14  1  0  0  0  0
  9 15  1  0  0  0  0
 10 16  1  0  0  0  0
 10 17  1  0  0  0  0
 10 18  1  0  0  0  0
 19 20  1  0  0  0  0
 20 21  4  0  0  0  0
 20 25  4  0  0  0  0
 21 22  4  0  0  0  0
 21 27  1  0  0  0  0
 22 23  4  0  0  0  0
 22 26  1  0  0  0  0
 23 24  4  0  0  0  0
 23 28  1  0  0  0  0
 24 25  4  0  0  0  0
 24 29  1  0  0  0  0
 25 30  1  0  0  0  0
 26 31  1  0  0  0  0
 26 32  1  0  0  0  0
M  END
> <BCLConfClusterSize>
1

> <ConfClashScore>
0 

> <ConfOneFourInteractionScore>
-0.94165 

> <ConfScore>
-0.292324 

> <ConfScorePBest>
0.00771991 

> <ConfTolerance>
0.228919 

> <RosettaParamsInstructions>
M  ROOT 3
M  POLY_N_BB 3
M  POLY_CA_BB 4
M  POLY_C_BB 2
M  POLY_O_BB 5
M  POLY_IGNORE 9 10 11 12 13 14 15 16 17 18 
M  POLY_UPPER 6
M  POLY_LOWER 8
M  POLY_CHG 0
M  POLY_PROPERTIES ALPHA_AA L_AA PROTEIN AROMATIC POLYMER 
M  END

$$$$



 32 32  0  0  0  0  0  0  0  0999 V2000
   -2.2726    2.1795    3.1530 H   0  0  0  1  0  0  0  0  0  0  0  0
   -0.6848    0.8356    2.8133 C   0  0  0  1  0  0  0  0  0  0  0  0
   -0.4929    3.1231    3.5983 N   0  0  0  1  0  0  0  0  0  0  0  0
   -1.2816    2.2336    2.7532 C   0  0  0  1  0  0  0  0  0  0  0  0
   -1.3673   -0.1561    2.5701 O   0  0  0  1  0  0  0  0  0  0  0  0
    0.6251    0.7612    3.0544 N   0  0  0  1  0  0  0  0  0  0  0  0
   -0.0527    3.8972    3.1890 H   0  0  0  1  0  0  0  0  0  0  0  0
   -0.3497    2.9194    4.9109 C   0  0  0  1  0  0  0  0  0  0  0  0
    1.3478   -0.5018    3.0393 C   0  0  0  1  0  0  0  0  0  0  0  0
    0.5508    3.8961    5.6328 C   0  0  0  1  0  0  0  0  0  0  0  0
   -0.9069    2.0012    5.5111 O   0  0  0  1  0  0  0  0  0  0  0  0
    1.1178    1.5858    3.2485 H   0  0  0  1  0  0  0  0  0  0  0  0
    0.6852   -1.2958    3.3136 H   0  0  0  1  0  0  0  0  0  0  0  0
    2.1583   -0.4570    3.7364 H   0  0  0  1  0  0  0  0  0  0  0  0
    1.7315   -0.6811    2.0566 H   0  0  0  1  0  0  0  0  0  0  0  0
    0.6766    4.7747    5.0352 H   0  0  0  1  0  0  0  0  0  0  0  0
    1.5044    3.4420    5.8042 H   0  0  0  1  0  0  0  0  0  0  0  0
    0.1087    4.1628    6.5700 H   0  0  0  1  0  0  0  0  0  0  0  0
   -1.5924    7.5248    0.7300 F   0  0  0  1  0  0  0  0  0  0  0  0
   -2.2671    6.3635    0.8306 C   0  0  0  1  0  0  0  0  0  0  0  0
   -1.5379    5.1994    1.0164 C   0  0  0  1  0  0  0  0  0  0  0  0
   -2.1893    3.9848    1.1194 C   0  0  0  1  0  0  0  0  0  0  0  0
   -3.5723    3.9314    1.0423 C   0  0  0  1  0  0  0  0  0  0  0  0
   -4.2996    5.0921    0.8570 C   0  0  0  1  0  0  0  0  0  0  0  0
   -3.6461    6.3102    0.7537 C   0  0  0  1  0  0  0  0  0  0  0  0
   -1.3949    2.7152    1.3161 C   0  0  0  1  0  0  0  0  0  0  0  0
   -0.5006    5.2399    1.0783 H   0  0  0  1  0  0  0  0  0  0  0  0
   -4.0627    3.0180    1.1239 H   0  0  0  1  0  0  0  0  0  0  0  0
   -5.3369    5.0515    0.7952 H   0  0  0  1  0  0  0  0  0  0  0  0
   -4.1935    7.1841    0.6183 H   0  0  0  1  0  0  0  0  0  0  0  0
   -1.8628    1.9412    0.7445 H   0  0  0  1  0  0  0  0  0  0  0  0
   -0.4054    2.8843    0.9457 H   0  0  0  1  0  0  0  0  0  0  0  0
  1  4  1  0  0  0  0
  2  4  1  0  0  0  0
  2  5  2  0  0  0  0
  2  6  1  0  0  0  0
  3  4  1  0  0  0  0
  3  7  1  0  0  0  0
  3  8  1  0  0  0  0
  4 26  1  0  0  0  0
  6  9  1  0  0  0  0
  6 12  1  0  0  0  0
  8 10  1  0  0  0  0
  8 11  2  0  0  0  0
  9 13  1  0  0  0  0
  9 14  1  0  0  0  0
  9 15  1  0  0  0  0
 10 16  1  0  0  0  0
 10 17  1  0  0  0  0
 10 18  1  0  0  0  0
 19 20  1  0  0  0  0
 20 21  4  0  0  0  0
 20 25  4  0  0  0  0
 21 22  4  0  0  0  0
 21 27  1  0  0  0  0
 22 23  4  0  0  0  0
 22 26  1  0  0  0  0
 23 24  4  0  0  0  0
 23 28  1  0  0  0  0
 24 25  4  0  0  0  0
 24 29  1  0  0  0  0
 25 30  1  0  0  0  0
 26 31  1  0  0  0  0
 26 32  1  0  0  0  0
M  END
> <BCLConfClusterSize>
1

> <ConfClashScore>
0 

> <ConfOneFourInteractionScore>
-0.960318 

> <ConfScore>
-0.288315 

> <ConfScorePBest>
0.00769143 

> <ConfTolerance>
0.193632 

> <RosettaParamsInstructions>
M  ROOT 3
M  POLY_N_BB 3
M  POLY_CA_BB 4
M  POLY_C_BB 2
M  POLY_O_BB 5
M  POLY_IGNORE 9 10 11 12 13 14 15 16 17 18 
M  POLY_UPPER 6
M  POLY_LOWER 8
M  POLY_CHG 0
M  POLY_PROPERTIES ALPHA_AA L_AA PROTEIN AROMATIC POLYMER 
M  END

$$$$



 32 32  0  0  0  0  0  0  0  0999 V2000
   -0.4506    2.8282   -0.5889 H   0  0  0  1  0  0  0  0  0  0  0  0
   -0.1270    0.8716    0.1780 C   0  0  0  1  0  0  0  0  0  0  0  0
   -2.1721    1.6843   -0.7941 N   0  0  0  1  0  0  0  0  0  0  0  0
   -1.0041    2.1010   -0.0324 C   0  0  0  1  0  0  0  0  0  0  0  0
   -0.6111   -0.2561    0.2258 O   0  0  0  1  0  0  0  0  0  0  0  0
    1.1820    1.1072    0.3041 N   0  0  0  1  0  0  0  0  0  0  0  0
   -2.7522    0.9855   -0.4259 H   0  0  0  1  0  0  0  0  0  0  0  0
   -2.4822    2.2235   -1.9829 C   0  0  0  1  0  0  0  0  0  0  0  0
    2.1630    0.0339    0.3631 C   0  0  0  1  0  0  0  0  0  0  0  0
   -3.7734    1.7358   -2.6108 C   0  0  0  1  0  0  0  0  0  0  0  0
   -1.7777    3.0598   -2.5421 O   0  0  0  1  0  0  0  0  0  0  0  0
    1.4924    2.0352    0.3588 H   0  0  0  1  0  0  0  0  0  0  0  0
    1.6812   -0.8744    0.6594 H   0  0  0  1  0  0  0  0  0  0  0  0
    2.9220    0.2834    1.0748 H   0  0  0  1  0  0  0  0  0  0  0  0
    2.6071   -0.0965   -0.6017 H   0  0  0  1  0  0  0  0  0  0  0  0
   -4.5955    1.9764   -1.9696 H   0  0  0  1  0  0  0  0  0  0  0  0
   -3.7255    0.6755   -2.7463 H   0  0  0  1  0  0  0  0  0  0  0  0
   -3.9102    2.2113   -3.5595 H   0  0  0  1  0  0  0  0  0  0  0  0
   -1.6228    7.5417    0.7261 F   0  0  0  1  0  0  0  0  0  0  0  0
   -2.2608    6.3603    0.8314 C   0  0  0  1  0  0  0  0  0  0  0  0
   -1.5345    5.1943    1.0172 C   0  0  0  1  0  0  0  0  0  0  0  0
   -2.1888    3.9813    1.1199 C   0  0  0  1  0  0  0  0  0  0  0  0
   -3.5719    3.9313    1.0424 C   0  0  0  1  0  0  0  0  0  0  0  0
   -4.2963    5.0937    0.8570 C   0  0  0  1  0  0  0  0  0  0  0  0
   -3.6399    6.3103    0.7541 C   0  0  0  1  0  0  0  0  0  0  0  0
   -1.3975    2.7098    1.3166 C   0  0  0  1  0  0  0  0  0  0  0  0
   -0.4971    5.2324    1.0794 H   0  0  0  1  0  0  0  0  0  0  0  0
   -4.0646    3.0190    1.1236 H   0  0  0  1  0  0  0  0  0  0  0  0
   -5.3338    5.0556    0.7949 H   0  0  0  1  0  0  0  0  0  0  0  0
   -4.1852    7.1855    0.6187 H   0  0  0  1  0  0  0  0  0  0  0  0
   -0.5111    2.9309    1.8736 H   0  0  0  1  0  0  0  0  0  0  0  0
   -1.9938    2.0059    1.8587 H   0  0  0  1  0  0  0  0  0  0  0  0
  1  4  1  0  0  0  0
  2  4  1  0  0  0  0
  2  5  2  0  0  0  0
  2  6  1  0  0  0  0
  3  4  1  0  0  0  0
  3  7  1  0  0  0  0
  3  8  1  0  0  0  0
  4 26  1  0  0  0  0
  6  9  1  0  0  0  0
  6 12  1  0  0  0  0
  8 10  1  0  0  0  0
  8 11  2  0  0  0  0
  9 13  1  0  0  0  0
  9 14  1  0  0  0  0
  9 15  1  0  0  0  0
 10 16  1  0  0  0  0
 10 17  1  0  0  0  0
 10 18  1  0  0  0  0
 19 20  1  0  0  0  0
 20 21  4  0  0  0  0
 20 25  4  0  0  0  0
 21 22  4  0  0  0  0
 21 27  1  0  0  0  0
 22 23  4  0  0  0  0
 22 26  1  0  0  0  0
 23 24  4  0  0  0  0
 23 28  1  0  0  0  0
 24 25  4  0  0  0  0
 24 29  1  0  0  0  0
 25 30  1  0  0  0  0
 26 31  1  0  0  0  0
 26 32  1  0  0  0  0
M  END
> <BCLConfClusterSize>
1

> <ConfClashScore>
0 

> <ConfOneFourInteractionScore>
-0.990503 

> <ConfScore>
-0.286657 

> <ConfScorePBest>
0.00766295 

> <ConfTolerance>
0.185018 

> <RosettaParamsInstructions>
M  ROOT 3
M  POLY_N_BB 3
M  POLY_CA_BB 4
M  POLY_C_BB 2
M  POLY_O_BB 5
M  POLY_IGNORE 9 10 11 12 13 14 15 16 17 18 
M  POLY_UPPER 6
M  POLY_LOWER 8
M  POLY_CHG 0
M  POLY_PROPERTIES ALPHA_AA L_AA PROTEIN AROMATIC POLYMER 
M  END

$$$$



 32 32  0  0  0  0  0  0  0  0999 V2000
   -0.7894    2.6573   -0.6914 H   0  0  0  1  0  0  0  0  0  0  0  0
   -0.1298    0.8393    0.0856 C   0  0  0  1  0  0  0  0  0  0  0  0
   -2.4413    1.4374   -0.5288 N   0  0  0  1  0  0  0  0  0  0  0  0
   -1.1615    1.9421    0.0121 C   0  0  0  1  0  0  0  0  0  0  0  0
   -0.4704   -0.3427    0.1116 O   0  0  0  1  0  0  0  0  0  0  0  0
    1.1659    1.1885    0.1215 N   0  0  0  1  0  0  0  0  0  0  0  0
   -2.9916    0.8492    0.0294 H   0  0  0  1  0  0  0  0  0  0  0  0
   -2.8732    1.7546   -1.7504 C   0  0  0  1  0  0  0  0  0  0  0  0
    2.1837    0.1908    0.4156 C   0  0  0  1  0  0  0  0  0  0  0  0
   -4.2548    1.2261   -2.1229 C   0  0  0  1  0  0  0  0  0  0  0  0
   -2.2135    2.4293   -2.5399 O   0  0  0  1  0  0  0  0  0  0  0  0
    1.4269    2.1173   -0.0506 H   0  0  0  1  0  0  0  0  0  0  0  0
    1.8083   -0.4989    1.1424 H   0  0  0  1  0  0  0  0  0  0  0  0
    3.0565    0.6750    0.8012 H   0  0  0  1  0  0  0  0  0  0  0  0
    2.4347   -0.3372   -0.4805 H   0  0  0  1  0  0  0  0  0  0  0  0
   -4.9679    1.5435   -1.3911 H   0  0  0  1  0  0  0  0  0  0  0  0
   -4.2303    0.1569   -2.1563 H   0  0  0  1  0  0  0  0  0  0  0  0
   -4.5353    1.6070   -3.0826 H   0  0  0  1  0  0  0  0  0  0  0  0
   -1.6228    7.5417    0.7261 F   0  0  0  1  0  0  0  0  0  0  0  0
   -2.2608    6.3603    0.8314 C   0  0  0  1  0  0  0  0  0  0  0  0
   -1.5345    5.1943    1.0172 C   0  0  0  1  0  0  0  0  0  0  0  0
   -2.1888    3.9813    1.1199 C   0  0  0  1  0  0  0  0  0  0  0  0
   -3.5719    3.9313    1.0424 C   0  0  0  1  0  0  0  0  0  0  0  0
   -4.2963    5.0937    0.8570 C   0  0  0  1  0  0  0  0  0  0  0  0
   -3.6399    6.3103    0.7541 C   0  0  0  1  0  0  0  0  0  0  0  0
   -1.3975    2.7098    1.3166 C   0  0  0  1  0  0  0  0  0  0  0  0
   -0.4971    5.2324    1.0794 H   0  0  0  1  0  0  0  0  0  0  0  0
   -4.0646    3.0190    1.1236 H   0  0  0  1  0  0  0  0  0  0  0  0
   -5.3338    5.0556    0.7949 H   0  0  0  1  0  0  0  0  0  0  0  0
   -4.1852    7.1855    0.6187 H   0  0  0  1  0  0  0  0  0  0  0  0
   -0.4478    2.9618    1.7401 H   0  0  0  1  0  0  0  0  0  0  0  0
   -1.9332    2.0764    1.9924 H   0  0  0  1  0  0  0  0  0  0  0  0
  1  4  1  0  0  0  0
  2  4  1  0  0  0  0
  2  5  2  0  0  0  0
  2  6  1  0  0  0  0
  3  4  1  0  0  0  0
  3  7  1  0  0  0  0
  3  8  1  0  0  0  0
  4 26  1  0  0  0  0
  6  9  1  0  0  0  0
  6 12  1  0  0  0  0
  8 10  1  0  0  0  0
  8 11  2  0  0  0  0
  9 13  1  0  0  0  0
  9 14  1  0  0  0  0
  9 15  1  0  0  0  0
 10 16  1  0  0  0  0
 10 17  1  0  0  0  0
 10 18  1  0  0  0  0
 19 20  1  0  0  0  0
 20 21  4  0  0  0  0
 20 25  4  0  0  0  0
 21 22  4  0  0  0  0
 21 27  1  0  0  0  0
 22 23  4  0  0  0  0
 22 26  1  0  0  0  0
 23 24  4  0  0  0  0
 23 28  1  0  0  0  0
 24 25  4  0  0  0  0
 24 29  1  0  0  0  0
 25 30  1  0  0  0  0
 26 31  1  0  0  0  0
 26 32  1  0  0  0  0
M  END
> <BCLConfClusterSize>
1

> <ConfClashScore>
0 

> <ConfOneFourInteractionScore>
-0.981931 

> <ConfScore>
-0.284018 

> <ConfScorePBest>
0.00763447 

> <ConfTolerance>
0.248155 

> <RosettaParamsInstructions>
M  ROOT 3
M  POLY_N_BB 3
M  POLY_CA_BB 4
M  POLY_C_BB 2
M  POLY_O_BB 5
M  POLY_IGNORE 9 10 11 12 13 14 15 16 17 18 
M  POLY_UPPER 6
M  POLY_LOWER 8
M  POLY_CHG 0
M  POLY_PROPERTIES ALPHA_AA L_AA PROTEIN AROMATIC POLYMER 
M  END

$$$$



 32 32  0  0  0  0  0  0  0  0999 V2000
   -2.7892    1.8882    2.6822 H   0  0  0  1  0  0  0  0  0  0  0  0
   -1.1049    0.6062    2.6453 C   0  0  0  1  0  0  0  0  0  0  0  0
   -1.2662    2.7717    3.7659 N   0  0  0  1  0  0  0  0  0  0  0  0
   -1.7266    1.9983    2.6224 C   0  0  0  1  0  0  0  0  0  0  0  0
   -1.6842   -0.3600    2.1508 O   0  0  0  1  0  0  0  0  0  0  0  0
    0.0983    0.5144    3.2337 N   0  0  0  1  0  0  0  0  0  0  0  0
   -0.8253    3.6358    3.6262 H   0  0  0  1  0  0  0  0  0  0  0  0
   -1.4447    2.3025    5.0161 C   0  0  0  1  0  0  0  0  0  0  0  0
    0.7043   -0.7895    3.4583 C   0  0  0  1  0  0  0  0  0  0  0  0
   -1.0082    3.2275    6.1355 C   0  0  0  1  0  0  0  0  0  0  0  0
   -1.9292    1.1968    5.2539 O   0  0  0  1  0  0  0  0  0  0  0  0
    0.5694    1.3272    3.5126 H   0  0  0  1  0  0  0  0  0  0  0  0
   -0.0559   -1.4973    3.7148 H   0  0  0  1  0  0  0  0  0  0  0  0
    1.4118   -0.7207    4.2581 H   0  0  0  1  0  0  0  0  0  0  0  0
    1.2028   -1.1091    2.5670 H   0  0  0  1  0  0  0  0  0  0  0  0
   -1.4971    4.1732    6.0284 H   0  0  0  1  0  0  0  0  0  0  0  0
    0.0516    3.3670    6.0898 H   0  0  0  1  0  0  0  0  0  0  0  0
   -1.2713    2.7951    7.0782 H   0  0  0  1  0  0  0  0  0  0  0  0
   -1.6228    7.5417    0.7261 F   0  0  0  1  0  0  0  0  0  0  0  0
   -2.2608    6.3603    0.8314 C   0  0  0  1  0  0  0  0  0  0  0  0
   -1.5345    5.1943    1.0172 C   0  0  0  1  0  0  0  0  0  0  0  0
   -2.1888    3.9813    1.1199 C   0  0  0  1  0  0  0  0  0  0  0  0
   -3.5719    3.9313    1.0424 C   0  0  0  1  0  0  0  0  0  0  0  0
   -4.2963    5.0937    0.8570 C   0  0  0  1  0  0  0  0  0  0  0  0
   -3.6399    6.3103    0.7541 C   0  0  0  1  0  0  0  0  0  0  0  0
   -1.3975    2.7098    1.3166 C   0  0  0  1  0  0  0  0  0  0  0  0
   -0.4971    5.2324    1.0794 H   0  0  0  1  0  0  0  0  0  0  0  0
   -4.0646    3.0190    1.1236 H   0  0  0  1  0  0  0  0  0  0  0  0
   -5.3338    5.0556    0.7949 H   0  0  0  1  0  0  0  0  0  0  0  0
   -4.1852    7.1855    0.6187 H   0  0  0  1  0  0  0  0  0  0  0  0
   -1.6109    2.0468    0.5043 H   0  0  0  1  0  0  0  0  0  0  0  0
   -0.3556    2.9534    1.3146 H   0  0  0  1  0  0  0  0  0  0  0  0
  1  4  1  0  0  0  0
  2  4  1  0  0  0  0
  2  5  2  0  0  0  0
  2  6  1  0  0  0  0
  3  4  1  0  0  0  0
  3  7  1  0  0  0  0
  3  8  1  0  0  0  0
  4 26  1  0  0  0  0
  6  9  1  0  0  0  0
  6 12  1  0  0  0  0
  8 10  1  0  0  0  0
  8 11  2  0  0  0  0
  9 13  1  0  0  0  0
  9 14  1  0  0  0  0
  9 15  1  0  0  0  0
 10 16  1  0  0  0  0
 10 17  1  0  0  0  0
 10 18  1  0  0  0  0
 19 20  1  0  0  0  0
 20 21  4  0  0  0  0
 20 25  4  0  0  0  0
 21 22  4  0  0  0  0
 21 27  1  0  0  0  0
 22 23  4  0  0  0  0
 22 26  1  0  0  0  0
 23 24  4  0  0  0  0
 23 28  1  0  0  0  0
 24 25  4  0  0  0  0
 24 29  1  0  0  0  0
 25 30  1  0  0  0  0
 26 31  1  0  0  0  0
 26 32  1  0  0  0  0
M  END
> <BCLConfClusterSize>
1

> <ConfClashScore>
0 

> <ConfOneFourInteractionScore>
-0.960318 

> <ConfScore>
-0.283156 

> <ConfScorePBest>
0.00760599 

> <ConfTolerance>
0.203769 

> <RosettaParamsInstructions>
M  ROOT 3
M  POLY_N_BB 3
M  POLY_CA_BB 4
M  POLY_C_BB 2
M  POLY_O_BB 5
M  POLY_IGNORE 9 10 11 12 13 14 15 16 17 18 
M  POLY_UPPER 6
M  POLY_LOWER 8
M  POLY_CHG 0
M  POLY_PROPERTIES ALPHA_AA L_AA PROTEIN AROMATIC POLYMER 
M  END

$$$$



 32 32  0  0  0  0  0  0  0  0999 V2000
   -1.7773    2.6175    3.3761 H   0  0  0  1  0  0  0  0  0  0  0  0
   -0.3072    1.1644    3.0665 C   0  0  0  1  0  0  0  0  0  0  0  0
    0.0088    3.6152    3.1336 N   0  0  0  1  0  0  0  0  0  0  0  0
   -0.9122    2.5230    2.7535 C   0  0  0  1  0  0  0  0  0  0  0  0
   -1.0097    0.1622    3.1689 O   0  0  0  1  0  0  0  0  0  0  0  0
    1.0199    1.1412    3.2191 N   0  0  0  1  0  0  0  0  0  0  0  0
    0.3564    4.2060    2.4332 H   0  0  0  1  0  0  0  0  0  0  0  0
    0.3957    3.8314    4.4388 C   0  0  0  1  0  0  0  0  0  0  0  0
    1.7005   -0.1123    3.5079 C   0  0  0  1  0  0  0  0  0  0  0  0
    1.3144    4.9962    4.6665 C   0  0  0  1  0  0  0  0  0  0  0  0
   -0.0058    3.0990    5.3233 O   0  0  0  1  0  0  0  0  0  0  0  0
    1.5362    1.9701    3.1364 H   0  0  0  1  0  0  0  0  0  0  0  0
    1.3569   -0.4975    4.4451 H   0  0  0  1  0  0  0  0  0  0  0  0
    2.7556    0.0583    3.5580 H   0  0  0  1  0  0  0  0  0  0  0  0
    1.4893   -0.8192    2.7330 H   0  0  0  1  0  0  0  0  0  0  0  0
    2.1808    4.8942    4.0469 H   0  0  0  1  0  0  0  0  0  0  0  0
    1.6119    5.0200    5.6940 H   0  0  0  1  0  0  0  0  0  0  0  0
    0.8055    5.9048    4.4208 H   0  0  0  1  0  0  0  0  0  0  0  0
   -1.6228    7.5417    0.7261 F   0  0  0  1  0  0  0  0  0  0  0  0
   -2.2608    6.3603    0.8314 C   0  0  0  1  0  0  0  0  0  0  0  0
   -1.5345    5.1943    1.0172 C   0  0  0  1  0  0  0  0  0  0  0  0
   -2.1888    3.9813    1.1199 C   0  0  0  1  0  0  0  0  0  0  0  0
   -3.5719    3.9313    1.0424 C   0  0  0  1  0  0  0  0  0  0  0  0
   -4.2963    5.0937    0.8570 C   0  0  0  1  0  0  0  0  0  0  0  0
   -3.6399    6.3103    0.7541 C   0  0  0  1  0  0  0  0  0  0  0  0
   -1.3975    2.7098    1.3166 C   0  0  0  1  0  0  0  0  0  0  0  0
   -0.4971    5.2324    1.0794 H   0  0  0  1  0  0  0  0  0  0  0  0
   -4.0646    3.0190    1.1236 H   0  0  0  1  0  0  0  0  0  0  0  0
   -5.3338    5.0556    0.7949 H   0  0  0  1  0  0  0  0  0  0  0  0
   -4.1852    7.1855    0.6187 H   0  0  0  1  0  0  0  0  0  0  0  0
   -2.0187    1.8784    1.0561 H   0  0  0  1  0  0  0  0  0  0  0  0
   -0.5454    2.7355    0.6699 H   0  0  0  1  0  0  0  0  0  0  0  0
  1  4  1  0  0  0  0
  2  4  1  0  0  0  0
  2  5  2  0  0  0  0
  2  6  1  0  0  0  0
  3  4  1  0  0  0  0
  3  7  1  0  0  0  0
  3  8  1  0  0  0  0
  4 26  1  0  0  0  0
  6  9  1  0  0  0  0
  6 12  1  0  0  0  0
  8 10  1  0  0  0  0
  8 11  2  0  0  0  0
  9 13  1  0  0  0  0
  9 14  1  0  0  0  0
  9 15  1  0  0  0  0
 10 16  1  0  0  0  0
 10 17  1  0  0  0  0
 10 18  1  0  0  0  0
 19 20  1  0  0  0  0
 20 21  4  0  0  0  0
 20 25  4  0  0  0  0
 21 22  4  0  0  0  0
 21 27  1  0  0  0  0
 22 23  4  0  0  0  0
 22 26  1  0  0  0  0
 23 24  4  0  0  0  0
 23 28  1  0  0  0  0
 24 25  4  0  0  0  0
 24 29  1  0  0  0  0
 25 30  1  0  0  0  0
 26 31  1  0  0  0  0
 26 32  1  0  0  0  0
M  END
> <BCLConfClusterSize>
1

> <ConfClashScore>
0 

> <ConfOneFourInteractionScore>
-0.94165 

> <ConfScore>
-0.282847 

> <ConfScorePBest>
0.00757751 

> <ConfTolerance>
0.22032 

> <RosettaParamsInstructions>
M  ROOT 3
M  POLY_N_BB 3
M  POLY_CA_BB 4
M  POLY_C_BB 2
M  POLY_O_BB 5
M  POLY_IGNORE 9 10 11 12 13 14 15 16 17 18 
M  POLY_UPPER 6
M  POLY_LOWER 8
M  POLY_CHG 0
M  POLY_PROPERTIES ALPHA_AA L_AA PROTEIN AROMATIC POLYMER 
M  END

$$$$



 32 32  0  0  0  0  0  0  0  0999 V2000
   -2.7579    1.6303    2.5774 H   0  0  0  1  0  0  0  0  0  0  0  0
   -0.8350    0.8285    2.8907 C   0  0  0  1  0  0  0  0  0  0  0  0
   -1.6876    2.9137    3.7805 N   0  0  0  1  0  0  0  0  0  0  0  0
   -1.7598    2.0102    2.6434 C   0  0  0  1  0  0  0  0  0  0  0  0
   -1.0882   -0.2798    2.4213 O   0  0  0  1  0  0  0  0  0  0  0  0
    0.2582    1.0308    3.6317 N   0  0  0  1  0  0  0  0  0  0  0  0
   -1.2842    3.7983    3.6568 H   0  0  0  1  0  0  0  0  0  0  0  0
   -2.1542    2.5784    4.9937 C   0  0  0  1  0  0  0  0  0  0  0  0
    1.1362   -0.0574    4.0352 C   0  0  0  1  0  0  0  0  0  0  0  0
   -1.9154    3.5931    6.0949 C   0  0  0  1  0  0  0  0  0  0  0  0
   -2.7394    1.5219    5.2165 O   0  0  0  1  0  0  0  0  0  0  0  0
    0.4764    1.9438    3.9133 H   0  0  0  1  0  0  0  0  0  0  0  0
    1.1456   -0.8096    3.2743 H   0  0  0  1  0  0  0  0  0  0  0  0
    0.7808   -0.4813    4.9511 H   0  0  0  1  0  0  0  0  0  0  0  0
    2.1279    0.3186    4.1768 H   0  0  0  1  0  0  0  0  0  0  0  0
   -0.8958    3.9165    6.0675 H   0  0  0  1  0  0  0  0  0  0  0  0
   -2.1215    3.1441    7.0440 H   0  0  0  1  0  0  0  0  0  0  0  0
   -2.5603    4.4345    5.9502 H   0  0  0  1  0  0  0  0  0  0  0  0
   -1.6268    7.5487    0.7250 F   0  0  0  1  0  0  0  0  0  0  0  0
   -2.2607    6.3650    0.8308 C   0  0  0  1  0  0  0  0  0  0  0  0
   -1.5303    5.2017    1.0166 C   0  0  0  1  0  0  0  0  0  0  0  0
   -2.1803    3.9864    1.1198 C   0  0  0  1  0  0  0  0  0  0  0  0
   -3.5633    3.9316    1.0429 C   0  0  0  1  0  0  0  0  0  0  0  0
   -4.2918    5.0914    0.8576 C   0  0  0  1  0  0  0  0  0  0  0  0
   -3.6396    6.3102    0.7541 C   0  0  0  1  0  0  0  0  0  0  0  0
   -1.4379    2.6859    1.3169 C   0  0  0  1  0  0  0  0  0  0  0  0
   -0.4929    5.2433    1.0783 H   0  0  0  1  0  0  0  0  0  0  0  0
   -4.0527    3.0176    1.1246 H   0  0  0  1  0  0  0  0  0  0  0  0
   -5.3291    5.0497    0.7959 H   0  0  0  1  0  0  0  0  0  0  0  0
   -4.1880    7.1835    0.6187 H   0  0  0  1  0  0  0  0  0  0  0  0
   -1.7015    2.0194    0.5224 H   0  0  0  1  0  0  0  0  0  0  0  0
   -0.3871    2.8849    1.2823 H   0  0  0  1  0  0  0  0  0  0  0  0
  1  4  1  0  0  0  0
  2  4  1  0  0  0  0
  2  5  2  0  0  0  0
  2  6  1  0  0  0  0
  3  4  1  0  0  0  0
  3  7  1  0  0  0  0
  3  8  1  0  0  0  0
  4 26  1  0  0  0  0
  6  9  1  0  0  0  0
  6 12  1  0  0  0  0
  8 10  1  0  0  0  0
  8 11  2  0  0  0  0
  9 13  1  0  0  0  0
  9 14  1  0  0  0  0
  9 15  1  0  0  0  0
 10 16  1  0  0  0  0
 10 17  1  0  0  0  0
 10 18  1  0  0  0  0
 19 20  1  0  0  0  0
 20 21  4  0  0  0  0
 20 25  4  0  0  0  0
 21 22  4  0  0  0  0
 21 27  1  0  0  0  0
 22 23  4  0  0  0  0
 22 26  1  0  0  0  0
 23 24  4  0  0  0  0
 23 28  1  0  0  0  0
 24 25  4  0  0  0  0
 24 29  1  0  0  0  0
 25 30  1  0  0  0  0
 26 31  1  0  0  0  0
 26 32  1  0  0  0  0
M  END
> <BCLConfClusterSize>
1

> <ConfClashScore>
0 

> <ConfOneFourInteractionScore>
-0.94165 

> <ConfScore>
-0.282813 

> <ConfScorePBest>
0.00754903 

> <ConfTolerance>
0.234406 

> <RosettaParamsInstructions>
M  ROOT 3
M  POLY_N_BB 3
M  POLY_CA_BB 4
M  POLY_C_BB 2
M  POLY_O_BB 5
M  POLY_IGNORE 9 10 11 12 13 14 15 16 17 18 
M  POLY_UPPER 6
M  POLY_LOWER 8
M  POLY_CHG 0
M  POLY_PROPERTIES ALPHA_AA L_AA PROTEIN AROMATIC POLYMER 
M  END

$$$$



 32 32  0  0  0  0  0  0  0  0999 V2000
    0.3032    3.0904    0.1233 H   0  0  0  1  0  0  0  0  0  0  0  0
    0.2058    1.0035    0.4447 C   0  0  0  1  0  0  0  0  0  0  0  0
   -1.1757    2.3034   -1.0931 N   0  0  0  1  0  0  0  0  0  0  0  0
   -0.4605    2.3428    0.1775 C   0  0  0  1  0  0  0  0  0  0  0  0
    1.0899    0.8913    1.2779 O   0  0  0  1  0  0  0  0  0  0  0  0
   -0.2417   -0.0273   -0.2896 N   0  0  0  1  0  0  0  0  0  0  0  0
   -2.1200    2.5650   -1.1126 H   0  0  0  1  0  0  0  0  0  0  0  0
   -0.5883    1.9232   -2.2313 C   0  0  0  1  0  0  0  0  0  0  0  0
    0.4284   -1.3191   -0.3058 C   0  0  0  1  0  0  0  0  0  0  0  0
   -1.4956    1.8342   -3.4430 C   0  0  0  1  0  0  0  0  0  0  0  0
    0.6105    1.6582   -2.3104 O   0  0  0  1  0  0  0  0  0  0  0  0
   -1.0476    0.0942   -0.8337 H   0  0  0  1  0  0  0  0  0  0  0  0
    0.8333   -1.5236    0.6633 H   0  0  0  1  0  0  0  0  0  0  0  0
    1.2196   -1.3012   -1.0260 H   0  0  0  1  0  0  0  0  0  0  0  0
   -0.2748   -2.0822   -0.5666 H   0  0  0  1  0  0  0  0  0  0  0  0
   -2.3522    1.2390   -3.2048 H   0  0  0  1  0  0  0  0  0  0  0  0
   -0.9631    1.3840   -4.2545 H   0  0  0  1  0  0  0  0  0  0  0  0
   -1.8115    2.8170   -3.7246 H   0  0  0  1  0  0  0  0  0  0  0  0
   -1.6228    7.5417    0.7261 F   0  0  0  1  0  0  0  0  0  0  0  0
   -2.2608    6.3603    0.8314 C   0  0  0  1  0  0  0  0  0  0  0  0
   -1.5345    5.1943    1.0172 C   0  0  0  1  0  0  0  0  0  0  0  0
   -2.1888    3.9813    1.1199 C   0  0  0  1  0  0  0  0  0  0  0  0
   -3.5719    3.9313    1.0424 C   0  0  0  1  0  0  0  0  0  0  0  0
   -4.2963    5.0937    0.8570 C   0  0  0  1  0  0  0  0  0  0  0  0
   -3.6399    6.3103    0.7541 C   0  0  0  1  0  0  0  0  0  0  0  0
   -1.3975    2.7098    1.3166 C   0  0  0  1  0  0  0  0  0  0  0  0
   -0.4971    5.2324    1.0794 H   0  0  0  1  0  0  0  0  0  0  0  0
   -4.0646    3.0190    1.1236 H   0  0  0  1  0  0  0  0  0  0  0  0
   -5.3338    5.0556    0.7949 H   0  0  0  1  0  0  0  0  0  0  0  0
   -4.1852    7.1855    0.6187 H   0  0  0  1  0  0  0  0  0  0  0  0
   -0.8105    2.8204    2.2043 H   0  0  0  1  0  0  0  0  0  0  0  0
   -2.0916    1.9056    1.4451 H   0  0  0  1  0  0  0  0  0  0  0  0
  1  4  1  0  0  0  0
  2  4  1  0  0  0  0
  2  5  2  0  0  0  0
  2  6  1  0  0  0  0
  3  4  1  0  0  0  0
  3  7  1  0  0  0  0
  3  8  1  0  0  0  0
  4 26  1  0  0  0  0
  6  9  1  0  0  0  0
  6 12  1  0  0  0  0
  8 10  1  0  0  0  0
  8 11  2  0  0  0  0
  9 13  1  0  0  0  0
  9 14  1  0  0  0  0
  9 15  1  0  0  0  0
 10 16  1  0  0  0  0
 10 17  1  0  0  0  0
 10 18  1  0  0  0  0
 19 20  1  0  0  0  0
 20 21  4  0  0  0  0
 20 25  4  0  0  0  0
 21 22  4  0  0  0  0
 21 27  1  0  0  0  0
 22 23  4  0  0  0  0
 22 26  1  0  0  0  0
 23 24  4  0  0  0  0
 23 28  1  0  0  0  0
 24 25  4  0  0  0  0
 24 29  1  0  0  0  0
 25 30  1  0  0  0  0
 26 31  1  0  0  0  0
 26 32  1  0  0  0  0
M  END
> <BCLConfClusterSize>
1

> <ConfClashScore>
0 

> <ConfOneFourInteractionScore>
-0.94165 

> <ConfScore>
-0.279549 

> <ConfScorePBest>
0.00752055 

> <ConfTolerance>
0.248556 

> <RosettaParamsInstructions>
M  ROOT 3
M  POLY_N_BB 3
M  POLY_CA_BB 4
M  POLY_C_BB 2
M  POLY_O_BB 5
M  POLY_IGNORE 9 10 11 12 13 14 15 16 17 18 
M  POLY_UPPER 6
M  POLY_LOWER 8
M  POLY_CHG 0
M  POLY_PROPERTIES ALPHA_AA L_AA PROTEIN AROMATIC POLYMER 
M  END

$$$$



 32 32  0  0  0  0  0  0  0  0999 V2000
   -0.7221    2.6593   -0.6785 H   0  0  0  1  0  0  0  0  0  0  0  0
    0.0475    0.9247    0.2282 C   0  0  0  1  0  0  0  0  0  0  0  0
   -2.2314    1.2696   -0.4967 N   0  0  0  1  0  0  0  0  0  0  0  0
   -1.0596    1.9439    0.0421 C   0  0  0  1  0  0  0  0  0  0  0  0
    1.2237    1.2005   -0.0043 O   0  0  0  1  0  0  0  0  0  0  0  0
   -0.3861   -0.2701    0.6602 N   0  0  0  1  0  0  0  0  0  0  0  0
   -3.0242    1.2115    0.0765 H   0  0  0  1  0  0  0  0  0  0  0  0
   -2.3080    0.7216   -1.7189 C   0  0  0  1  0  0  0  0  0  0  0  0
    0.5271   -1.3363    1.0436 C   0  0  0  1  0  0  0  0  0  0  0  0
   -3.6584    0.1464   -2.0995 C   0  0  0  1  0  0  0  0  0  0  0  0
   -1.3543    0.6792   -2.4951 O   0  0  0  1  0  0  0  0  0  0  0  0
   -1.3512   -0.4299    0.7193 H   0  0  0  1  0  0  0  0  0  0  0  0
    1.4817   -0.9187    1.2869 H   0  0  0  1  0  0  0  0  0  0  0  0
    0.6353   -2.0228    0.2300 H   0  0  0  1  0  0  0  0  0  0  0  0
    0.1358   -1.8515    1.8959 H   0  0  0  1  0  0  0  0  0  0  0  0
   -3.8293   -0.7565   -1.5515 H   0  0  0  1  0  0  0  0  0  0  0  0
   -3.6730   -0.0649   -3.1483 H   0  0  0  1  0  0  0  0  0  0  0  0
   -4.4258    0.8550   -1.8672 H   0  0  0  1  0  0  0  0  0  0  0  0
   -1.6537    7.5575    0.7223 F   0  0  0  1  0  0  0  0  0  0  0  0
   -2.2545    6.3571    0.8321 C   0  0  0  1  0  0  0  0  0  0  0  0
   -1.5311    5.1894    1.0180 C   0  0  0  1  0  0  0  0  0  0  0  0
   -2.1883    3.9779    1.1203 C   0  0  0  1  0  0  0  0  0  0  0  0
   -3.5715    3.9312    1.0424 C   0  0  0  1  0  0  0  0  0  0  0  0
   -4.2931    5.0954    0.8571 C   0  0  0  1  0  0  0  0  0  0  0  0
   -3.6337    6.3104    0.7545 C   0  0  0  1  0  0  0  0  0  0  0  0
   -1.4001    2.7045    1.3170 C   0  0  0  1  0  0  0  0  0  0  0  0
   -0.4935    5.2249    1.0805 H   0  0  0  1  0  0  0  0  0  0  0  0
   -4.0664    3.0201    1.1234 H   0  0  0  1  0  0  0  0  0  0  0  0
   -5.3306    5.0598    0.7946 H   0  0  0  1  0  0  0  0  0  0  0  0
   -4.1768    7.1869    0.6190 H   0  0  0  1  0  0  0  0  0  0  0  0
   -0.4824    2.9565    1.8061 H   0  0  0  1  0  0  0  0  0  0  0  0
   -1.9733    2.0553    1.9455 H   0  0  0  1  0  0  0  0  0  0  0  0
  1  4  1  0  0  0  0
  2  4  1  0  0  0  0
  2  5  2  0  0  0  0
  2  6  1  0  0  0  0
  3  4  1  0  0  0  0
  3  7  1  0  0  0  0
  3  8  1  0  0  0  0
  4 26  1  0  0  0  0
  6  9  1  0  0  0  0
  6 12  1  0  0  0  0
  8 10  1  0  0  0  0
  8 11  2  0  0  0  0
  9 13  1  0  0  0  0
  9 14  1  0  0  0  0
  9 15  1  0  0  0  0
 10 16  1  0  0  0  0
 10 17  1  0  0  0  0
 10 18  1  0  0  0  0
 19 20  1  0  0  0  0
 20 21  4  0  0  0  0
 20 25  4  0  0  0  0
 21 22  4  0  0  0  0
 21 27  1  0  0  0  0
 22 23  4  0  0  0  0
 22 26  1  0  0  0  0
 23 24  4  0  0  0  0
 23 28  1  0  0  0  0
 24 25  4  0  0  0  0
 24 29  1  0  0  0  0
 25 30  1  0  0  0  0
 26 31  1  0  0  0  0
 26 32  1  0  0  0  0
M  END
> <BCLConfClusterSize>
1

> <ConfClashScore>
0 

> <ConfOneFourInteractionScore>
-0.956443 

> <ConfScore>
-0.276589 

> <ConfScorePBest>
0.00749207 

> <ConfTolerance>
0.192666 

> <RosettaParamsInstructions>
M  ROOT 3
M  POLY_N_BB 3
M  POLY_CA_BB 4
M  POLY_C_BB 2
M  POLY_O_BB 5
M  POLY_IGNORE 9 10 11 12 13 14 15 16 17 18 
M  POLY_UPPER 6
M  POLY_LOWER 8
M  POLY_CHG 0
M  POLY_PROPERTIES ALPHA_AA L_AA PROTEIN AROMATIC POLYMER 
M  END

$$$$



 32 32  0  0  0  0  0  0  0  0999 V2000
   -2.4161    2.1869    3.0465 H   0  0  0  1  0  0  0  0  0  0  0  0
   -0.8439    0.8348    2.9736 C   0  0  0  1  0  0  0  0  0  0  0  0
   -0.7618    3.2155    3.6717 N   0  0  0  1  0  0  0  0  0  0  0  0
   -1.3859    2.2349    2.7614 C   0  0  0  1  0  0  0  0  0  0  0  0
   -1.5855   -0.1336    3.0019 O   0  0  0  1  0  0  0  0  0  0  0  0
    0.4866    0.7412    3.1250 N   0  0  0  1  0  0  0  0  0  0  0  0
   -0.2426    3.9615    3.3051 H   0  0  0  1  0  0  0  0  0  0  0  0
   -0.9040    3.0875    4.9997 C   0  0  0  1  0  0  0  0  0  0  0  0
    1.1001   -0.5457    3.4175 C   0  0  0  1  0  0  0  0  0  0  0  0
   -0.4084    4.2613    5.8345 C   0  0  0  1  0  0  0  0  0  0  0  0
   -1.3997    2.0949    5.5266 O   0  0  0  1  0  0  0  0  0  0  0  0
    1.0461    1.5411    3.0383 H   0  0  0  1  0  0  0  0  0  0  0  0
    1.9861   -0.3953    3.9982 H   0  0  0  1  0  0  0  0  0  0  0  0
    1.3536   -1.0363    2.5010 H   0  0  0  1  0  0  0  0  0  0  0  0
    0.4115   -1.1518    3.9684 H   0  0  0  1  0  0  0  0  0  0  0  0
    0.6456    4.3801    5.6935 H   0  0  0  1  0  0  0  0  0  0  0  0
   -0.6108    4.0740    6.8683 H   0  0  0  1  0  0  0  0  0  0  0  0
   -0.9119    5.1544    5.5280 H   0  0  0  1  0  0  0  0  0  0  0  0
   -1.5924    7.5248    0.7300 F   0  0  0  1  0  0  0  0  0  0  0  0
   -2.2671    6.3635    0.8306 C   0  0  0  1  0  0  0  0  0  0  0  0
   -1.5379    5.1994    1.0164 C   0  0  0  1  0  0  0  0  0  0  0  0
   -2.1893    3.9848    1.1194 C   0  0  0  1  0  0  0  0  0  0  0  0
   -3.5723    3.9314    1.0423 C   0  0  0  1  0  0  0  0  0  0  0  0
   -4.2996    5.0921    0.8570 C   0  0  0  1  0  0  0  0  0  0  0  0
   -3.6461    6.3102    0.7537 C   0  0  0  1  0  0  0  0  0  0  0  0
   -1.3949    2.7152    1.3161 C   0  0  0  1  0  0  0  0  0  0  0  0
   -0.5006    5.2399    1.0783 H   0  0  0  1  0  0  0  0  0  0  0  0
   -4.0627    3.0180    1.1239 H   0  0  0  1  0  0  0  0  0  0  0  0
   -5.3369    5.0515    0.7952 H   0  0  0  1  0  0  0  0  0  0  0  0
   -4.1935    7.1841    0.6183 H   0  0  0  1  0  0  0  0  0  0  0  0
   -1.8222    1.9480    0.7049 H   0  0  0  1  0  0  0  0  0  0  0  0
   -0.3853    2.8945    1.0105 H   0  0  0  1  0  0  0  0  0  0  0  0
  1  4  1  0  0  0  0
  2  4  1  0  0  0  0
  2  5  2  0  0  0  0
  2  6  1  0  0  0  0
  3  4  1  0  0  0  0
  3  7  1  0  0  0  0
  3  8  1  0  0  0  0
  4 26  1  0  0  0  0
  6  9  1  0  0  0  0
  6 12  1  0  0  0  0
  8 10  1  0  0  0  0
  8 11  2  0  0  0  0
  9 13  1  0  0  0  0
  9 14  1  0  0  0  0
  9 15  1  0  0  0  0
 10 16  1  0  0  0  0
 10 17  1  0  0  0  0
 10 18  1  0  0  0  0
 19 20  1  0  0  0  0
 20 21  4  0  0  0  0
 20 25  4  0  0  0  0
 21 22  4  0  0  0  0
 21 27  1  0  0  0  0
 22 23  4  0  0  0  0
 22 26  1  0  0  0  0
 23 24  4  0  0  0  0
 23 28  1  0  0  0  0
 24 25  4  0  0  0  0
 24 29  1  0  0  0  0
 25 30  1  0  0  0  0
 26 31  1  0  0  0  0
 26 32  1  0  0  0  0
M  END
> <BCLConfClusterSize>
1

> <ConfClashScore>
0 

> <ConfOneFourInteractionScore>
-0.960318 

> <ConfScore>
-0.275997 

> <ConfScorePBest>
0.00746359 

> <ConfTolerance>
0.267417 

> <RosettaParamsInstructions>
M  ROOT 3
M  POLY_N_BB 3
M  POLY_CA_BB 4
M  POLY_C_BB 2
M  POLY_O_BB 5
M  POLY_IGNORE 9 10 11 12 13 14 15 16 17 18 
M  POLY_UPPER 6
M  POLY_LOWER 8
M  POLY_CHG 0
M  POLY_PROPERTIES ALPHA_AA L_AA PROTEIN AROMATIC POLYMER 
M  END

$$$$



 32 32  0  0  0  0  0  0  0  0999 V2000
   -2.0011    2.4218    3.3121 H   0  0  0  1  0  0  0  0  0  0  0  0
   -0.6260    0.8956    2.8169 C   0  0  0  1  0  0  0  0  0  0  0  0
   -0.1211    3.2611    3.3585 N   0  0  0  1  0  0  0  0  0  0  0  0
   -1.0866    2.3528    2.7609 C   0  0  0  1  0  0  0  0  0  0  0  0
   -1.3836   -0.0172    3.0911 O   0  0  0  1  0  0  0  0  0  0  0  0
    0.6526    0.6084    2.5565 N   0  0  0  1  0  0  0  0  0  0  0  0
    0.1884    4.0444    2.8575 H   0  0  0  1  0  0  0  0  0  0  0  0
    0.3470    3.0290    4.5943 C   0  0  0  1  0  0  0  0  0  0  0  0
    1.2128   -0.7161    2.7797 C   0  0  0  1  0  0  0  0  0  0  0  0
    1.3792    4.0159    5.1039 C   0  0  0  1  0  0  0  0  0  0  0  0
   -0.0250    2.0829    5.2835 O   0  0  0  1  0  0  0  0  0  0  0  0
    1.2334    1.3141    2.2029 H   0  0  0  1  0  0  0  0  0  0  0  0
    2.2786   -0.6469    2.8442 H   0  0  0  1  0  0  0  0  0  0  0  0
    0.9459   -1.3577    1.9661 H   0  0  0  1  0  0  0  0  0  0  0  0
    0.8258   -1.1175    3.6930 H   0  0  0  1  0  0  0  0  0  0  0  0
    2.1713    4.1047    4.3902 H   0  0  0  1  0  0  0  0  0  0  0  0
    1.7756    3.6681    6.0349 H   0  0  0  1  0  0  0  0  0  0  0  0
    0.9189    4.9713    5.2464 H   0  0  0  1  0  0  0  0  0  0  0  0
   -1.6228    7.5417    0.7261 F   0  0  0  1  0  0  0  0  0  0  0  0
   -2.2608    6.3603    0.8314 C   0  0  0  1  0  0  0  0  0  0  0  0
   -1.5345    5.1943    1.0172 C   0  0  0  1  0  0  0  0  0  0  0  0
   -2.1888    3.9813    1.1199 C   0  0  0  1  0  0  0  0  0  0  0  0
   -3.5719    3.9313    1.0424 C   0  0  0  1  0  0  0  0  0  0  0  0
   -4.2963    5.0937    0.8570 C   0  0  0  1  0  0  0  0  0  0  0  0
   -3.6399    6.3103    0.7541 C   0  0  0  1  0  0  0  0  0  0  0  0
   -1.3975    2.7098    1.3166 C   0  0  0  1  0  0  0  0  0  0  0  0
   -0.4971    5.2324    1.0794 H   0  0  0  1  0  0  0  0  0  0  0  0
   -4.0646    3.0190    1.1236 H   0  0  0  1  0  0  0  0  0  0  0  0
   -5.3338    5.0556    0.7949 H   0  0  0  1  0  0  0  0  0  0  0  0
   -4.1852    7.1855    0.6187 H   0  0  0  1  0  0  0  0  0  0  0  0
   -1.9571    1.9035    0.8903 H   0  0  0  1  0  0  0  0  0  0  0  0
   -0.4690    2.8149    0.7953 H   0  0  0  1  0  0  0  0  0  0  0  0
  1  4  1  0  0  0  0
  2  4  1  0  0  0  0
  2  5  2  0  0  0  0
  2  6  1  0  0  0  0
  3  4  1  0  0  0  0
  3  7  1  0  0  0  0
  3  8  1  0  0  0  0
  4 26  1  0  0  0  0
  6  9  1  0  0  0  0
  6 12  1  0  0  0  0
  8 10  1  0  0  0  0
  8 11  2  0  0  0  0
  9 13  1  0  0  0  0
  9 14  1  0  0  0  0
  9 15  1  0  0  0  0
 10 16  1  0  0  0  0
 10 17  1  0  0  0  0
 10 18  1  0  0  0  0
 19 20  1  0  0  0  0
 20 21  4  0  0  0  0
 20 25  4  0  0  0  0
 21 22  4  0  0  0  0
 21 27  1  0  0  0  0
 22 23  4  0  0  0  0
 22 26  1  0  0  0  0
 23 24  4  0  0  0  0
 23 28  1  0  0  0  0
 24 25  4  0  0  0  0
 24 29  1  0  0  0  0
 25 30  1  0  0  0  0
 26 31  1  0  0  0  0
 26 32  1  0  0  0  0
M  END
> <BCLConfClusterSize>
1

> <ConfClashScore>
0 

> <ConfOneFourInteractionScore>
-0.960318 

> <ConfScore>
-0.27398 

> <ConfScorePBest>
0.0074351 

> <ConfTolerance>
0.284543 

> <RosettaParamsInstructions>
M  ROOT 3
M  POLY_N_BB 3
M  POLY_CA_BB 4
M  POLY_C_BB 2
M  POLY_O_BB 5
M  POLY_IGNORE 9 10 11 12 13 14 15 16 17 18 
M  POLY_UPPER 6
M  POLY_LOWER 8
M  POLY_CHG 0
M  POLY_PROPERTIES ALPHA_AA L_AA PROTEIN AROMATIC POLYMER 
M  END

$$$$



 32 32  0  0  0  0  0  0  0  0999 V2000
   -0.8648    2.7868   -0.7053 H   0  0  0  1  0  0  0  0  0  0  0  0
    0.0220    1.0605    0.0489 C   0  0  0  1  0  0  0  0  0  0  0  0
   -2.3676    1.4152   -0.5376 N   0  0  0  1  0  0  0  0  0  0  0  0
   -1.1477    2.0160   -0.0192 C   0  0  0  1  0  0  0  0  0  0  0  0
    1.1772    1.4530   -0.1099 O   0  0  0  1  0  0  0  0  0  0  0  0
   -0.2870   -0.2233    0.2910 N   0  0  0  1  0  0  0  0  0  0  0  0
   -3.2022    1.5328   -0.0376 H   0  0  0  1  0  0  0  0  0  0  0  0
   -2.3900    0.6822   -1.7144 C   0  0  0  1  0  0  0  0  0  0  0  0
    0.7065   -1.2854    0.2377 C   0  0  0  1  0  0  0  0  0  0  0  0
   -3.6992    0.1337   -2.2084 C   0  0  0  1  0  0  0  0  0  0  0  0
   -1.3433    0.5065   -2.3110 O   0  0  0  1  0  0  0  0  0  0  0  0
   -1.2138   -0.4532    0.5112 H   0  0  0  1  0  0  0  0  0  0  0  0
    1.4825   -1.0146   -0.4474 H   0  0  0  1  0  0  0  0  0  0  0  0
    0.2420   -2.1918   -0.0902 H   0  0  0  1  0  0  0  0  0  0  0  0
    1.1254   -1.4307    1.2115 H   0  0  0  1  0  0  0  0  0  0  0  0
   -4.1058   -0.5332   -1.4770 H   0  0  0  1  0  0  0  0  0  0  0  0
   -3.5408   -0.3958   -3.1246 H   0  0  0  1  0  0  0  0  0  0  0  0
   -4.3830    0.9395   -2.3752 H   0  0  0  1  0  0  0  0  0  0  0  0
   -1.6228    7.5417    0.7261 F   0  0  0  1  0  0  0  0  0  0  0  0
   -2.2608    6.3603    0.8314 C   0  0  0  1  0  0  0  0  0  0  0  0
   -1.5345    5.1943    1.0172 C   0  0  0  1  0  0  0  0  0  0  0  0
   -2.1888    3.9813    1.1199 C   0  0  0  1  0  0  0  0  0  0  0  0
   -3.5719    3.9313    1.0424 C   0  0  0  1  0  0  0  0  0  0  0  0
   -4.2963    5.0937    0.8570 C   0  0  0  1  0  0  0  0  0  0  0  0
   -3.6399    6.3103    0.7541 C   0  0  0  1  0  0  0  0  0  0  0  0
   -1.3975    2.7098    1.3166 C   0  0  0  1  0  0  0  0  0  0  0  0
   -0.4971    5.2324    1.0794 H   0  0  0  1  0  0  0  0  0  0  0  0
   -4.0646    3.0190    1.1236 H   0  0  0  1  0  0  0  0  0  0  0  0
   -5.3338    5.0556    0.7949 H   0  0  0  1  0  0  0  0  0  0  0  0
   -4.1852    7.1855    0.6187 H   0  0  0  1  0  0  0  0  0  0  0  0
   -0.4578    2.9480    1.7694 H   0  0  0  1  0  0  0  0  0  0  0  0
   -1.9458    2.0509    1.9570 H   0  0  0  1  0  0  0  0  0  0  0  0
  1  4  1  0  0  0  0
  2  4  1  0  0  0  0
  2  5  2  0  0  0  0
  2  6  1  0  0  0  0
  3  4  1  0  0  0  0
  3  7  1  0  0  0  0
  3  8  1  0  0  0  0
  4 26  1  0  0  0  0
  6  9  1  0  0  0  0
  6 12  1  0  0  0  0
  8 10  1  0  0  0  0
  8 11  2  0  0  0  0
  9 13  1  0  0  0  0
  9 14  1  0  0  0  0
  9 15  1  0  0  0  0
 10 16  1  0  0  0  0
 10 17  1  0  0  0  0
 10 18  1  0  0  0  0
 19 20  1  0  0  0  0
 20 21  4  0  0  0  0
 20 25  4  0  0  0  0
 21 22  4  0  0  0  0
 21 27  1  0  0  0  0
 22 23  4  0  0  0  0
 22 26  1  0  0  0  0
 23 24  4  0  0  0  0
 23 28  1  0  0  0  0
 24 25  4  0  0  0  0
 24 29  1  0  0  0  0
 25 30  1  0  0  0  0
 26 31  1  0  0  0  0
 26 32  1  0  0  0  0
M  END
> <BCLConfClusterSize>
1

> <ConfClashScore>
0 

> <ConfOneFourInteractionScore>
-0.944706 

> <ConfScore>
-0.271018 

> <ConfScorePBest>
0.00740662 

> <ConfTolerance>
0.274803 

> <RosettaParamsInstructions>
M  ROOT 3
M  POLY_N_BB 3
M  POLY_CA_BB 4
M  POLY_C_BB 2
M  POLY_O_BB 5
M  POLY_IGNORE 9 10 11 12 13 14 15 16 17 18 
M  POLY_UPPER 6
M  POLY_LOWER 8
M  POLY_CHG 0
M  POLY_PROPERTIES ALPHA_AA L_AA PROTEIN AROMATIC POLYMER 
M  END

$$$$



 32 32  0  0  0  0  0  0  0  0999 V2000
   -0.0992    2.9487   -0.3118 H   0  0  0  1  0  0  0  0  0  0  0  0
   -0.0517    0.9088    0.1469 C   0  0  0  1  0  0  0  0  0  0  0  0
   -1.8403    2.1751   -1.0473 N   0  0  0  1  0  0  0  0  0  0  0  0
   -0.8186    2.2156   -0.0118 C   0  0  0  1  0  0  0  0  0  0  0  0
   -0.6292   -0.1657    0.1673 O   0  0  0  1  0  0  0  0  0  0  0  0
    1.2802    1.0246    0.2603 N   0  0  0  1  0  0  0  0  0  0  0  0
   -2.6333    1.6164   -0.9077 H   0  0  0  1  0  0  0  0  0  0  0  0
   -1.7349    2.8731   -2.1816 C   0  0  0  1  0  0  0  0  0  0  0  0
    2.1425   -0.1225    0.5018 C   0  0  0  1  0  0  0  0  0  0  0  0
   -2.8500    2.6666   -3.1881 C   0  0  0  1  0  0  0  0  0  0  0  0
   -0.8002    3.6391   -2.4124 O   0  0  0  1  0  0  0  0  0  0  0  0
    1.6865    1.9126    0.1777 H   0  0  0  1  0  0  0  0  0  0  0  0
    1.9310   -0.5313    1.4677 H   0  0  0  1  0  0  0  0  0  0  0  0
    3.1662    0.1864    0.4619 H   0  0  0  1  0  0  0  0  0  0  0  0
    1.9644   -0.8661   -0.2467 H   0  0  0  1  0  0  0  0  0  0  0  0
   -3.0320    1.6193   -3.3096 H   0  0  0  1  0  0  0  0  0  0  0  0
   -2.5644    3.0902   -4.1283 H   0  0  0  1  0  0  0  0  0  0  0  0
   -3.7404    3.1448   -2.8367 H   0  0  0  1  0  0  0  0  0  0  0  0
   -1.6230    7.5420    0.7260 F   0  0  0  1  0  0  0  0  0  0  0  0
   -2.2610    6.3606    0.8313 C   0  0  0  1  0  0  0  0  0  0  0  0
   -1.5347    5.1946    1.0172 C   0  0  0  1  0  0  0  0  0  0  0  0
   -2.1890    3.9816    1.1198 C   0  0  0  1  0  0  0  0  0  0  0  0
   -3.5721    3.9316    1.0423 C   0  0  0  1  0  0  0  0  0  0  0  0
   -4.2965    5.0940    0.8570 C   0  0  0  1  0  0  0  0  0  0  0  0
   -3.6401    6.3106    0.7540 C   0  0  0  1  0  0  0  0  0  0  0  0
   -1.3954    2.7064    1.3171 C   0  0  0  1  0  0  0  0  0  0  0  0
   -0.4973    5.2327    1.0793 H   0  0  0  1  0  0  0  0  0  0  0  0
   -4.0648    3.0193    1.1236 H   0  0  0  1  0  0  0  0  0  0  0  0
   -5.3340    5.0559    0.7948 H   0  0  0  1  0  0  0  0  0  0  0  0
   -4.1854    7.1858    0.6186 H   0  0  0  1  0  0  0  0  0  0  0  0
   -0.5932    2.8945    1.9997 H   0  0  0  1  0  0  0  0  0  0  0  0
   -2.0381    1.9520    1.7205 H   0  0  0  1  0  0  0  0  0  0  0  0
  1  4  1  0  0  0  0
  2  4  1  0  0  0  0
  2  5  2  0  0  0  0
  2  6  1  0  0  0  0
  3  4  1  0  0  0  0
  3  7  1  0  0  0  0
  3  8  1  0  0  0  0
  4 26  1  0  0  0  0
  6  9  1  0  0  0  0
  6 12  1  0  0  0  0
  8 10  1  0  0  0  0
  8 11  2  0  0  0  0
  9 13  1  0  0  0  0
  9 14  1  0  0  0  0
  9 15  1  0  0  0  0
 10 16  1  0  0  0  0
 10 17  1  0  0  0  0
 10 18  1  0  0  0  0
 19 20  1  0  0  0  0
 20 21  4  0  0  0  0
 20 25  4  0  0  0  0
 21 22  4  0  0  0  0
 21 27  1  0  0  0  0
 22 23  4  0  0  0  0
 22 26  1  0  0  0  0
 23 24  4  0  0  0  0
 23 28  1  0  0  0  0
 24 25  4  0  0  0  0
 24 29  1  0  0  0  0
 25 30  1  0  0  0  0
 26 31  1  0  0  0  0
 26 32  1  0  0  0  0
M  END
> <BCLConfClusterSize>
1

> <ConfClashScore>
0 

> <ConfOneFourInteractionScore>
-0.985807 

> <ConfScore>
-0.266543 

> <ConfScorePBest>
0.00737814 

> <ConfTolerance>
0.236293 

> <RosettaParamsInstructions>
M  ROOT 3
M  POLY_N_BB 3
M  POLY_CA_BB 4
M  POLY_C_BB 2
M  POLY_O_BB 5
M  POLY_IGNORE 9 10 11 12 13 14 15 16 17 18 
M  POLY_UPPER 6
M  POLY_LOWER 8
M  POLY_CHG 0
M  POLY_PROPERTIES ALPHA_AA L_AA PROTEIN AROMATIC POLYMER 
M  END

$$$$



 32 32  0  0  0  0  0  0  0  0999 V2000
   -1.9852    2.4023    3.3211 H   0  0  0  1  0  0  0  0  0  0  0  0
   -0.4098    1.0689    2.9483 C   0  0  0  1  0  0  0  0  0  0  0  0
   -0.2460    3.4918    3.3392 N   0  0  0  1  0  0  0  0  0  0  0  0
   -1.0677    2.4291    2.7711 C   0  0  0  1  0  0  0  0  0  0  0  0
    0.8043    0.9494    2.9587 O   0  0  0  1  0  0  0  0  0  0  0  0
   -1.2477    0.0297    3.0896 N   0  0  0  1  0  0  0  0  0  0  0  0
    0.6826    3.5592    3.0333 H   0  0  0  1  0  0  0  0  0  0  0  0
   -0.6638    4.3804    4.2452 C   0  0  0  1  0  0  0  0  0  0  0  0
   -0.7210   -1.3191    3.2358 C   0  0  0  1  0  0  0  0  0  0  0  0
    0.3501    5.4414    4.6916 C   0  0  0  1  0  0  0  0  0  0  0  0
   -1.8207    4.4245    4.6616 O   0  0  0  1  0  0  0  0  0  0  0  0
   -2.2162    0.1796    3.0944 H   0  0  0  1  0  0  0  0  0  0  0  0
    0.2211   -1.3909    2.7337 H   0  0  0  1  0  0  0  0  0  0  0  0
   -1.4079   -2.0183    2.8067 H   0  0  0  1  0  0  0  0  0  0  0  0
   -0.5891   -1.5395    4.2745 H   0  0  0  1  0  0  0  0  0  0  0  0
    1.2845    4.9706    4.9154 H   0  0  0  1  0  0  0  0  0  0  0  0
   -0.0163    5.9393    5.5650 H   0  0  0  1  0  0  0  0  0  0  0  0
    0.4893    6.1542    3.9060 H   0  0  0  1  0  0  0  0  0  0  0  0
   -1.5964    7.5319    0.7289 F   0  0  0  1  0  0  0  0  0  0  0  0
   -2.2670    6.3683    0.8300 C   0  0  0  1  0  0  0  0  0  0  0  0
   -1.5337    5.2067    1.0158 C   0  0  0  1  0  0  0  0  0  0  0  0
   -2.1808    3.9899    1.1194 C   0  0  0  1  0  0  0  0  0  0  0  0
   -3.5636    3.9317    1.0428 C   0  0  0  1  0  0  0  0  0  0  0  0
   -4.2950    5.0898    0.8576 C   0  0  0  1  0  0  0  0  0  0  0  0
   -3.6458    6.3102    0.7537 C   0  0  0  1  0  0  0  0  0  0  0  0
   -1.4352    2.6912    1.3165 C   0  0  0  1  0  0  0  0  0  0  0  0
   -0.4965    5.2509    1.0772 H   0  0  0  1  0  0  0  0  0  0  0  0
   -4.0509    3.0166    1.1248 H   0  0  0  1  0  0  0  0  0  0  0  0
   -5.3322    5.0456    0.7962 H   0  0  0  1  0  0  0  0  0  0  0  0
   -4.1963    7.1821    0.6184 H   0  0  0  1  0  0  0  0  0  0  0  0
   -2.0524    1.8883    0.9711 H   0  0  0  1  0  0  0  0  0  0  0  0
   -0.5353    2.7240    0.7385 H   0  0  0  1  0  0  0  0  0  0  0  0
  1  4  1  0  0  0  0
  2  4  1  0  0  0  0
  2  5  2  0  0  0  0
  2  6  1  0  0  0  0
  3  4  1  0  0  0  0
  3  7  1  0  0  0  0
  3  8  1  0  0  0  0
  4 26  1  0  0  0  0
  6  9  1  0  0  0  0
  6 12  1  0  0  0  0
  8 10  1  0  0  0  0
  8 11  2  0  0  0  0
  9 13  1  0  0  0  0
  9 14  1  0  0  0  0
  9 15  1  0  0  0  0
 10 16  1  0  0  0  0
 10 17  1  0  0  0  0
 10 18  1  0  0  0  0
 19 20  1  0  0  0  0
 20 21  4  0  0  0  0
 20 25  4  0  0  0  0
 21 22  4  0  0  0  0
 21 27  1  0  0  0  0
 22 23  4  0  0  0  0
 22 26  1  0  0  0  0
 23 24  4  0  0  0  0
 23 28  1  0  0  0  0
 24 25  4  0  0  0  0
 24 29  1  0  0  0  0
 25 30  1  0  0  0  0
 26 31  1  0  0  0  0
 26 32  1  0  0  0  0
M  END
> <BCLConfClusterSize>
1

> <ConfClashScore>
0 

> <ConfOneFourInteractionScore>
-0.990503 

> <ConfScore>
-0.262992 

> <ConfScorePBest>
0.00734966 

> <ConfTolerance>
0.194303 

> <RosettaParamsInstructions>
M  ROOT 3
M  POLY_N_BB 3
M  POLY_CA_BB 4
M  POLY_C_BB 2
M  POLY_O_BB 5
M  POLY_IGNORE 9 10 11 12 13 14 15 16 17 18 
M  POLY_UPPER 6
M  POLY_LOWER 8
M  POLY_CHG 0
M  POLY_PROPERTIES ALPHA_AA L_AA PROTEIN AROMATIC POLYMER 
M  END

$$$$



 32 32  0  0  0  0  0  0  0  0999 V2000
   -0.1044    3.0258   -0.3433 H   0  0  0  1  0  0  0  0  0  0  0  0
    0.0544    1.0142    0.2299 C   0  0  0  1  0  0  0  0  0  0  0  0
   -1.8073    2.1175   -1.0164 N   0  0  0  1  0  0  0  0  0  0  0  0
   -0.7785    2.2644   -0.0105 C   0  0  0  1  0  0  0  0  0  0  0  0
    1.2293    1.0812    0.5887 O   0  0  0  1  0  0  0  0  0  0  0  0
   -0.6169   -0.1336    0.0129 N   0  0  0  1  0  0  0  0  0  0  0  0
   -2.7442    2.2396   -0.7560 H   0  0  0  1  0  0  0  0  0  0  0  0
   -1.5249    1.8213   -2.2882 C   0  0  0  1  0  0  0  0  0  0  0  0
    0.0303   -1.4150    0.2520 C   0  0  0  1  0  0  0  0  0  0  0  0
   -2.7165    1.6489   -3.2027 C   0  0  0  1  0  0  0  0  0  0  0  0
   -0.3751    1.6931   -2.7067 O   0  0  0  1  0  0  0  0  0  0  0  0
   -1.5429   -0.1056   -0.3065 H   0  0  0  1  0  0  0  0  0  0  0  0
    0.5514   -1.3832    1.1860 H   0  0  0  1  0  0  0  0  0  0  0  0
    0.7247   -1.6162   -0.5369 H   0  0  0  1  0  0  0  0  0  0  0  0
   -0.7093   -2.1876    0.2825 H   0  0  0  1  0  0  0  0  0  0  0  0
   -2.4232    1.0975   -4.0715 H   0  0  0  1  0  0  0  0  0  0  0  0
   -3.0817    2.6105   -3.4974 H   0  0  0  1  0  0  0  0  0  0  0  0
   -3.4880    1.1167   -2.6864 H   0  0  0  1  0  0  0  0  0  0  0  0
   -1.5886    7.5181    0.7310 F   0  0  0  1  0  0  0  0  0  0  0  0
   -2.2671    6.3589    0.8311 C   0  0  0  1  0  0  0  0  0  0  0  0
   -1.5418    5.1924    1.0170 C   0  0  0  1  0  0  0  0  0  0  0  0
   -2.1972    3.9799    1.1195 C   0  0  0  1  0  0  0  0  0  0  0  0
   -3.5803    3.9310    1.0419 C   0  0  0  1  0  0  0  0  0  0  0  0
   -4.3037    5.0941    0.8565 C   0  0  0  1  0  0  0  0  0  0  0  0
   -3.6462    6.3101    0.7537 C   0  0  0  1  0  0  0  0  0  0  0  0
   -1.3583    2.7392    1.3155 C   0  0  0  1  0  0  0  0  0  0  0  0
   -0.5044    5.2295    1.0793 H   0  0  0  1  0  0  0  0  0  0  0  0
   -4.0737    3.0192    1.1230 H   0  0  0  1  0  0  0  0  0  0  0  0
   -5.3412    5.0569    0.7942 H   0  0  0  1  0  0  0  0  0  0  0  0
   -4.1907    7.1858    0.6183 H   0  0  0  1  0  0  0  0  0  0  0  0
   -0.5572    2.9602    1.9896 H   0  0  0  1  0  0  0  0  0  0  0  0
   -1.9693    1.9642    1.7288 H   0  0  0  1  0  0  0  0  0  0  0  0
  1  4  1  0  0  0  0
  2  4  1  0  0  0  0
  2  5  2  0  0  0  0
  2  6  1  0  0  0  0
  3  4  1  0  0  0  0
  3  7  1  0  0  0  0
  3  8  1  0  0  0  0
  4 26  1  0  0  0  0
  6  9  1  0  0  0  0
  6 12  1  0  0  0  0
  8 10  1  0  0  0  0
  8 11  2  0  0  0  0
  9 13  1  0  0  0  0
  9 14  1  0  0  0  0
  9 15  1  0  0  0  0
 10 16  1  0  0  0  0
 10 17  1  0  0  0  0
 10 18  1  0  0  0  0
 19 20  1  0  0  0  0
 20 21  4  0  0  0  0
 20 25  4  0  0  0  0
 21 22  4  0  0  0  0
 21 27  1  0  0  0  0
 22 23  4  0  0  0  0
 22 26  1  0  0  0  0
 23 24  4  0  0  0  0
 23 28  1  0  0  0  0
 24 25  4  0  0  0  0
 24 29  1  0  0  0  0
 25 30  1  0  0  0  0
 26 31  1  0  0  0  0
 26 32  1  0  0  0  0
M  END
> <BCLConfClusterSize>
1

> <ConfClashScore>
0 

> <ConfOneFourInteractionScore>
-0.94165 

> <ConfScore>
-0.262141 

> <ConfScorePBest>
0.00732118 

> <ConfTolerance>
0.225832 

> <RosettaParamsInstructions>
M  ROOT 3
M  POLY_N_BB 3
M  POLY_CA_BB 4
M  POLY_C_BB 2
M  POLY_O_BB 5
M  POLY_IGNORE 9 10 11 12 13 14 15 16 17 18 
M  POLY_UPPER 6
M  POLY_LOWER 8
M  POLY_CHG 0
M  POLY_PROPERTIES ALPHA_AA L_AA PROTEIN AROMATIC POLYMER 
M  END

$$$$



 32 32  0  0  0  0  0  0  0  0999 V2000
   -2.1569    2.0870    3.1705 H   0  0  0  1  0  0  0  0  0  0  0  0
   -0.3929    0.9893    2.8632 C   0  0  0  1  0  0  0  0  0  0  0  0
   -0.5820    3.3397    3.5636 N   0  0  0  1  0  0  0  0  0  0  0  0
   -1.1879    2.2864    2.7628 C   0  0  0  1  0  0  0  0  0  0  0  0
    0.8270    1.0075    3.0042 O   0  0  0  1  0  0  0  0  0  0  0  0
   -1.0614   -0.1629    2.7933 N   0  0  0  1  0  0  0  0  0  0  0  0
    0.1836    3.8167    3.1804 H   0  0  0  1  0  0  0  0  0  0  0  0
   -0.9924    3.7069    4.7871 C   0  0  0  1  0  0  0  0  0  0  0  0
   -0.4721   -1.4806    2.9785 C   0  0  0  1  0  0  0  0  0  0  0  0
   -0.3544    4.9637    5.3463 C   0  0  0  1  0  0  0  0  0  0  0  0
   -1.8303    3.0780    5.4282 O   0  0  0  1  0  0  0  0  0  0  0  0
   -2.0218   -0.1187    2.6029 H   0  0  0  1  0  0  0  0  0  0  0  0
    0.5631   -1.4499    2.7096 H   0  0  0  1  0  0  0  0  0  0  0  0
   -0.9807   -2.1888    2.3583 H   0  0  0  1  0  0  0  0  0  0  0  0
   -0.5655   -1.7718    4.0039 H   0  0  0  1  0  0  0  0  0  0  0  0
   -0.1622    4.8323    6.3907 H   0  0  0  1  0  0  0  0  0  0  0  0
   -1.0172    5.7921    5.2073 H   0  0  0  1  0  0  0  0  0  0  0  0
    0.5665    5.1534    4.8356 H   0  0  0  1  0  0  0  0  0  0  0  0
   -1.6537    7.5575    0.7223 F   0  0  0  1  0  0  0  0  0  0  0  0
   -2.2545    6.3571    0.8321 C   0  0  0  1  0  0  0  0  0  0  0  0
   -1.5311    5.1894    1.0180 C   0  0  0  1  0  0  0  0  0  0  0  0
   -2.1883    3.9779    1.1203 C   0  0  0  1  0  0  0  0  0  0  0  0
   -3.5715    3.9312    1.0424 C   0  0  0  1  0  0  0  0  0  0  0  0
   -4.2931    5.0954    0.8571 C   0  0  0  1  0  0  0  0  0  0  0  0
   -3.6337    6.3104    0.7545 C   0  0  0  1  0  0  0  0  0  0  0  0
   -1.4001    2.7045    1.3170 C   0  0  0  1  0  0  0  0  0  0  0  0
   -0.4935    5.2249    1.0805 H   0  0  0  1  0  0  0  0  0  0  0  0
   -4.0664    3.0201    1.1234 H   0  0  0  1  0  0  0  0  0  0  0  0
   -5.3306    5.0598    0.7946 H   0  0  0  1  0  0  0  0  0  0  0  0
   -4.1768    7.1869    0.6190 H   0  0  0  1  0  0  0  0  0  0  0  0
   -1.9203    1.9139    0.8178 H   0  0  0  1  0  0  0  0  0  0  0  0
   -0.4384    2.8388    0.8677 H   0  0  0  1  0  0  0  0  0  0  0  0
  1  4  1  0  0  0  0
  2  4  1  0  0  0  0
  2  5  2  0  0  0  0
  2  6  1  0  0  0  0
  3  4  1  0  0  0  0
  3  7  1  0  0  0  0
  3  8  1  0  0  0  0
  4 26  1  0  0  0  0
  6  9  1  0  0  0  0
  6 12  1  0  0  0  0
  8 10  1  0  0  0  0
  8 11  2  0  0  0  0
  9 13  1  0  0  0  0
  9 14  1  0  0  0  0
  9 15  1  0  0  0  0
 10 16  1  0  0  0  0
 10 17  1  0  0  0  0
 10 18  1  0  0  0  0
 19 20  1  0  0  0  0
 20 21  4  0  0  0  0
 20 25  4  0  0  0  0
 21 22  4  0  0  0  0
 21 27  1  0  0  0  0
 22 23  4  0  0  0  0
 22 26  1  0  0  0  0
 23 24  4  0  0  0  0
 23 28  1  0  0  0  0
 24 25  4  0  0  0  0
 24 29  1  0  0  0  0
 25 30  1  0  0  0  0
 26 31  1  0  0  0  0
 26 32  1  0  0  0  0
M  END
> <BCLConfClusterSize>
1

> <ConfClashScore>
0 

> <ConfOneFourInteractionScore>
-0.985807 

> <ConfScore>
-0.26117 

> <ConfScorePBest>
0.0072927 

> <ConfTolerance>
0.191216 

> <RosettaParamsInstructions>
M  ROOT 3
M  POLY_N_BB 3
M  POLY_CA_BB 4
M  POLY_C_BB 2
M  POLY_O_BB 5
M  POLY_IGNORE 9 10 11 12 13 14 15 16 17 18 
M  POLY_UPPER 6
M  POLY_LOWER 8
M  POLY_CHG 0
M  POLY_PROPERTIES ALPHA_AA L_AA PROTEIN AROMATIC POLYMER 
M  END

$$$$



 32 32  0  0  0  0  0  0  0  0999 V2000
   -2.5423    2.0942    2.9755 H   0  0  0  1  0  0  0  0  0  0  0  0
   -0.8262    0.8702    2.9373 C   0  0  0  1  0  0  0  0  0  0  0  0
   -0.9771    3.2351    3.6679 N   0  0  0  1  0  0  0  0  0  0  0  0
   -1.5023    2.2267    2.7615 C   0  0  0  1  0  0  0  0  0  0  0  0
    0.2702    0.7697    3.4863 O   0  0  0  1  0  0  0  0  0  0  0  0
   -1.5031   -0.1853    2.4578 N   0  0  0  1  0  0  0  0  0  0  0  0
   -0.0562    3.5539    3.5641 H   0  0  0  1  0  0  0  0  0  0  0  0
   -1.7473    3.7281    4.6419 C   0  0  0  1  0  0  0  0  0  0  0  0
   -0.9674   -1.5377    2.5021 C   0  0  0  1  0  0  0  0  0  0  0  0
   -1.0744    4.7110    5.5802 C   0  0  0  1  0  0  0  0  0  0  0  0
   -2.9289    3.4163    4.7843 O   0  0  0  1  0  0  0  0  0  0  0  0
   -2.3888   -0.0400    2.0643 H   0  0  0  1  0  0  0  0  0  0  0  0
   -0.7612   -1.8071    3.5169 H   0  0  0  1  0  0  0  0  0  0  0  0
   -0.0638   -1.5820    1.9309 H   0  0  0  1  0  0  0  0  0  0  0  0
   -1.6835   -2.2183    2.0912 H   0  0  0  1  0  0  0  0  0  0  0  0
   -0.0224    4.5171    5.6060 H   0  0  0  1  0  0  0  0  0  0  0  0
   -1.4814    4.6008    6.5636 H   0  0  0  1  0  0  0  0  0  0  0  0
   -1.2445    5.7087    5.2330 H   0  0  0  1  0  0  0  0  0  0  0  0
   -1.5924    7.5248    0.7300 F   0  0  0  1  0  0  0  0  0  0  0  0
   -2.2671    6.3635    0.8306 C   0  0  0  1  0  0  0  0  0  0  0  0
   -1.5379    5.1994    1.0164 C   0  0  0  1  0  0  0  0  0  0  0  0
   -2.1893    3.9848    1.1194 C   0  0  0  1  0  0  0  0  0  0  0  0
   -3.5723    3.9314    1.0423 C   0  0  0  1  0  0  0  0  0  0  0  0
   -4.2996    5.0921    0.8570 C   0  0  0  1  0  0  0  0  0  0  0  0
   -3.6461    6.3102    0.7537 C   0  0  0  1  0  0  0  0  0  0  0  0
   -1.3949    2.7152    1.3161 C   0  0  0  1  0  0  0  0  0  0  0  0
   -0.5006    5.2399    1.0783 H   0  0  0  1  0  0  0  0  0  0  0  0
   -4.0627    3.0180    1.1239 H   0  0  0  1  0  0  0  0  0  0  0  0
   -5.3369    5.0515    0.7952 H   0  0  0  1  0  0  0  0  0  0  0  0
   -4.1935    7.1841    0.6183 H   0  0  0  1  0  0  0  0  0  0  0  0
   -1.7743    1.9590    0.6610 H   0  0  0  1  0  0  0  0  0  0  0  0
   -0.3675    2.9050    1.0854 H   0  0  0  1  0  0  0  0  0  0  0  0
  1  4  1  0  0  0  0
  2  4  1  0  0  0  0
  2  5  2  0  0  0  0
  2  6  1  0  0  0  0
  3  4  1  0  0  0  0
  3  7  1  0  0  0  0
  3  8  1  0  0  0  0
  4 26  1  0  0  0  0
  6  9  1  0  0  0  0
  6 12  1  0  0  0  0
  8 10  1  0  0  0  0
  8 11  2  0  0  0  0
  9 13  1  0  0  0  0
  9 14  1  0  0  0  0
  9 15  1  0  0  0  0
 10 16  1  0  0  0  0
 10 17  1  0  0  0  0
 10 18  1  0  0  0  0
 19 20  1  0  0  0  0
 20 21  4  0  0  0  0
 20 25  4  0  0  0  0
 21 22  4  0  0  0  0
 21 27  1  0  0  0  0
 22 23  4  0  0  0  0
 22 26  1  0  0  0  0
 23 24  4  0  0  0  0
 23 28  1  0  0  0  0
 24 25  4  0  0  0  0
 24 29  1  0  0  0  0
 25 30  1  0  0  0  0
 26 31  1  0  0  0  0
 26 32  1  0  0  0  0
M  END
> <BCLConfClusterSize>
1

> <ConfClashScore>
0 

> <ConfOneFourInteractionScore>
-0.985807 

> <ConfScore>
-0.258028 

> <ConfScorePBest>
0.00726422 

> <ConfTolerance>
0.236244 

> <RosettaParamsInstructions>
M  ROOT 3
M  POLY_N_BB 3
M  POLY_CA_BB 4
M  POLY_C_BB 2
M  POLY_O_BB 5
M  POLY_IGNORE 9 10 11 12 13 14 15 16 17 18 
M  POLY_UPPER 6
M  POLY_LOWER 8
M  POLY_CHG 0
M  POLY_PROPERTIES ALPHA_AA L_AA PROTEIN AROMATIC POLYMER 
M  END

$$$$



 32 32  0  0  0  0  0  0  0  0999 V2000
   -0.2451    2.7548   -0.4437 H   0  0  0  1  0  0  0  0  0  0  0  0
   -0.1729    0.7913    0.3009 C   0  0  0  1  0  0  0  0  0  0  0  0
   -2.0503    1.9099   -0.9288 N   0  0  0  1  0  0  0  0  0  0  0  0
   -0.9411    2.0733   -0.0011 C   0  0  0  1  0  0  0  0  0  0  0  0
    1.0182    0.8180    0.6076 O   0  0  0  1  0  0  0  0  0  0  0  0
   -0.8787   -0.3468    0.2091 N   0  0  0  1  0  0  0  0  0  0  0  0
   -2.9431    1.6899   -0.5896 H   0  0  0  1  0  0  0  0  0  0  0  0
   -1.8523    2.0606   -2.2548 C   0  0  0  1  0  0  0  0  0  0  0  0
   -0.2221   -1.6304    0.3980 C   0  0  0  1  0  0  0  0  0  0  0  0
   -3.0386    1.8674   -3.1793 C   0  0  0  1  0  0  0  0  0  0  0  0
   -0.7448    2.3459   -2.7025 O   0  0  0  1  0  0  0  0  0  0  0  0
   -1.8386   -0.3126    0.0143 H   0  0  0  1  0  0  0  0  0  0  0  0
    0.5551   -1.5302    1.1265 H   0  0  0  1  0  0  0  0  0  0  0  0
    0.1993   -1.9553   -0.5303 H   0  0  0  1  0  0  0  0  0  0  0  0
   -0.9376   -2.3503    0.7369 H   0  0  0  1  0  0  0  0  0  0  0  0
   -3.7939    2.5887   -2.9466 H   0  0  0  1  0  0  0  0  0  0  0  0
   -3.4348    0.8820   -3.0495 H   0  0  0  1  0  0  0  0  0  0  0  0
   -2.7242    1.9953   -4.1940 H   0  0  0  1  0  0  0  0  0  0  0  0
   -1.6537    7.5575    0.7223 F   0  0  0  1  0  0  0  0  0  0  0  0
   -2.2545    6.3571    0.8321 C   0  0  0  1  0  0  0  0  0  0  0  0
   -1.5311    5.1894    1.0180 C   0  0  0  1  0  0  0  0  0  0  0  0
   -2.1883    3.9779    1.1203 C   0  0  0  1  0  0  0  0  0  0  0  0
   -3.5715    3.9312    1.0424 C   0  0  0  1  0  0  0  0  0  0  0  0
   -4.2931    5.0954    0.8571 C   0  0  0  1  0  0  0  0  0  0  0  0
   -3.6337    6.3104    0.7545 C   0  0  0  1  0  0  0  0  0  0  0  0
   -1.4001    2.7045    1.3170 C   0  0  0  1  0  0  0  0  0  0  0  0
   -0.4935    5.2249    1.0805 H   0  0  0  1  0  0  0  0  0  0  0  0
   -4.0664    3.0201    1.1234 H   0  0  0  1  0  0  0  0  0  0  0  0
   -5.3306    5.0598    0.7946 H   0  0  0  1  0  0  0  0  0  0  0  0
   -4.1768    7.1869    0.6190 H   0  0  0  1  0  0  0  0  0  0  0  0
   -0.5359    2.9267    1.9074 H   0  0  0  1  0  0  0  0  0  0  0  0
   -2.0157    1.9997    1.8359 H   0  0  0  1  0  0  0  0  0  0  0  0
  1  4  1  0  0  0  0
  2  4  1  0  0  0  0
  2  5  2  0  0  0  0
  2  6  1  0  0  0  0
  3  4  1  0  0  0  0
  3  7  1  0  0  0  0
  3  8  1  0  0  0  0
  4 26  1  0  0  0  0
  6  9  1  0  0  0  0
  6 12  1  0  0  0  0
  8 10  1  0  0  0  0
  8 11  2  0  0  0  0
  9 13  1  0  0  0  0
  9 14  1  0  0  0  0
  9 15  1  0  0  0  0
 10 16  1  0  0  0  0
 10 17  1  0  0  0  0
 10 18  1  0  0  0  0
 19 20  1  0  0  0  0
 20 21  4  0  0  0  0
 20 25  4  0  0  0  0
 21 22  4  0  0  0  0
 21 27  1  0  0  0  0
 22 23  4  0  0  0  0
 22 26  1  0  0  0  0
 23 24  4  0  0  0  0
 23 28  1  0  0  0  0
 24 25  4  0  0  0  0
 24 29  1  0  0  0  0
 25 30  1  0  0  0  0
 26 31  1  0  0  0  0
 26 32  1  0  0  0  0
M  END
> <BCLConfClusterSize>
1

> <ConfClashScore>
0 

> <ConfOneFourInteractionScore>
-0.960318 

> <ConfScore>
-0.257036 

> <ConfScorePBest>
0.00723574 

> <ConfTolerance>
0.246726 

> <RosettaParamsInstructions>
M  ROOT 3
M  POLY_N_BB 3
M  POLY_CA_BB 4
M  POLY_C_BB 2
M  POLY_O_BB 5
M  POLY_IGNORE 9 10 11 12 13 14 15 16 17 18 
M  POLY_UPPER 6
M  POLY_LOWER 8
M  POLY_CHG 0
M  POLY_PROPERTIES ALPHA_AA L_AA PROTEIN AROMATIC POLYMER 
M  END

$$$$



 32 32  0  0  0  0  0  0  0  0999 V2000
   -0.7760    2.4622   -0.6736 H   0  0  0  1  0  0  0  0  0  0  0  0
   -0.2754    0.6752    0.3241 C   0  0  0  1  0  0  0  0  0  0  0  0
   -2.5062    1.3861   -0.4522 N   0  0  0  1  0  0  0  0  0  0  0  0
   -1.2320    1.8481    0.0746 C   0  0  0  1  0  0  0  0  0  0  0  0
    0.9276    0.8348    0.1989 O   0  0  0  1  0  0  0  0  0  0  0  0
   -0.8234   -0.4702    0.7596 N   0  0  0  1  0  0  0  0  0  0  0  0
   -3.2841    1.2773    0.1338 H   0  0  0  1  0  0  0  0  0  0  0  0
   -2.5865    1.1130   -1.7634 C   0  0  0  1  0  0  0  0  0  0  0  0
   -0.0183   -1.6175    1.1514 C   0  0  0  1  0  0  0  0  0  0  0  0
   -3.8969    0.5108   -2.2318 C   0  0  0  1  0  0  0  0  0  0  0  0
   -1.6740    1.3286   -2.5439 O   0  0  0  1  0  0  0  0  0  0  0  0
   -1.7996   -0.5362    0.8157 H   0  0  0  1  0  0  0  0  0  0  0  0
    0.8948   -1.6203    0.5936 H   0  0  0  1  0  0  0  0  0  0  0  0
   -0.5605   -2.5182    0.9521 H   0  0  0  1  0  0  0  0  0  0  0  0
    0.2027   -1.5575    2.1966 H   0  0  0  1  0  0  0  0  0  0  0  0
   -4.6997    1.1799   -2.0023 H   0  0  0  1  0  0  0  0  0  0  0  0
   -4.0579   -0.4229   -1.7346 H   0  0  0  1  0  0  0  0  0  0  0  0
   -3.8578    0.3504   -3.2890 H   0  0  0  1  0  0  0  0  0  0  0  0
   -1.5924    7.5248    0.7300 F   0  0  0  1  0  0  0  0  0  0  0  0
   -2.2671    6.3635    0.8306 C   0  0  0  1  0  0  0  0  0  0  0  0
   -1.5379    5.1994    1.0164 C   0  0  0  1  0  0  0  0  0  0  0  0
   -2.1893    3.9848    1.1194 C   0  0  0  1  0  0  0  0  0  0  0  0
   -3.5723    3.9314    1.0423 C   0  0  0  1  0  0  0  0  0  0  0  0
   -4.2996    5.0921    0.8570 C   0  0  0  1  0  0  0  0  0  0  0  0
   -3.6461    6.3102    0.7537 C   0  0  0  1  0  0  0  0  0  0  0  0
   -1.3949    2.7152    1.3161 C   0  0  0  1  0  0  0  0  0  0  0  0
   -0.5006    5.2399    1.0783 H   0  0  0  1  0  0  0  0  0  0  0  0
   -4.0627    3.0180    1.1239 H   0  0  0  1  0  0  0  0  0  0  0  0
   -5.3369    5.0515    0.7952 H   0  0  0  1  0  0  0  0  0  0  0  0
   -4.1935    7.1841    0.6183 H   0  0  0  1  0  0  0  0  0  0  0  0
   -0.4185    2.9867    1.6595 H   0  0  0  1  0  0  0  0  0  0  0  0
   -1.8871    2.1305    2.0649 H   0  0  0  1  0  0  0  0  0  0  0  0
  1  4  1  0  0  0  0
  2  4  1  0  0  0  0
  2  5  2  0  0  0  0
  2  6  1  0  0  0  0
  3  4  1  0  0  0  0
  3  7  1  0  0  0  0
  3  8  1  0  0  0  0
  4 26  1  0  0  0  0
  6  9  1  0  0  0  0
  6 12  1  0  0  0  0
  8 10  1  0  0  0  0
  8 11  2  0  0  0  0
  9 13  1  0  0  0  0
  9 14  1  0  0  0  0
  9 15  1  0  0  0  0
 10 16  1  0  0  0  0
 10 17  1  0  0  0  0
 10 18  1  0  0  0  0
 19 20  1  0  0  0  0
 20 21  4  0  0  0  0
 20 25  4  0  0  0  0
 21 22  4  0  0  0  0
 21 27  1  0  0  0  0
 22 23  4  0  0  0  0
 22 26  1  0  0  0  0
 23 24  4  0  0  0  0
 23 28  1  0  0  0  0
 24 25  4  0  0  0  0
 24 29  1  0  0  0  0
 25 30  1  0  0  0  0
 26 31  1  0  0  0  0
 26 32  1  0  0  0  0
M  END
> <BCLConfClusterSize>
1

> <ConfClashScore>
0 

> <ConfOneFourInteractionScore>
-0.960318 

> <ConfScore>
-0.256123 

> <ConfScorePBest>
0.00720726 

> <ConfTolerance>
0.238498 

> <RosettaParamsInstructions>
M  ROOT 3
M  POLY_N_BB 3
M  POLY_CA_BB 4
M  POLY_C_BB 2
M  POLY_O_BB 5
M  POLY_IGNORE 9 10 11 12 13 14 15 16 17 18 
M  POLY_UPPER 6
M  POLY_LOWER 8
M  POLY_CHG 0
M  POLY_PROPERTIES ALPHA_AA L_AA PROTEIN AROMATIC POLYMER 
M  END

$$$$



 32 32  0  0  0  0  0  0  0  0999 V2000
   -0.5063    3.1571    3.1545 H   0  0  0  1  0  0  0  0  0  0  0  0
   -2.4407    2.4214    3.5702 C   0  0  0  1  0  0  0  0  0  0  0  0
   -0.4404    1.1089    2.8813 N   0  0  0  1  0  0  0  0  0  0  0  0
   -1.1431    2.3830    2.7802 C   0  0  0  1  0  0  0  0  0  0  0  0
   -2.9759    3.4901    3.8605 O   0  0  0  1  0  0  0  0  0  0  0  0
   -3.0011    1.2406    3.8471 N   0  0  0  1  0  0  0  0  0  0  0  0
   -0.2573    0.6251    2.0490 H   0  0  0  1  0  0  0  0  0  0  0  0
   -0.0281    0.5525    4.0214 C   0  0  0  1  0  0  0  0  0  0  0  0
   -4.3310    1.2345    4.4380 C   0  0  0  1  0  0  0  0  0  0  0  0
    0.8742   -0.6704    3.8901 C   0  0  0  1  0  0  0  0  0  0  0  0
   -0.2858    1.0361    5.1227 O   0  0  0  1  0  0  0  0  0  0  0  0
   -2.5300    0.4024    3.6577 H   0  0  0  1  0  0  0  0  0  0  0  0
   -4.8241    2.1581    4.2173 H   0  0  0  1  0  0  0  0  0  0  0  0
   -4.2492    1.1187    5.4986 H   0  0  0  1  0  0  0  0  0  0  0  0
   -4.8974    0.4223    4.0326 H   0  0  0  1  0  0  0  0  0  0  0  0
    1.8074   -0.3805    3.4541 H   0  0  0  1  0  0  0  0  0  0  0  0
    0.3997   -1.3981    3.2655 H   0  0  0  1  0  0  0  0  0  0  0  0
    1.0486   -1.0903    4.8587 H   0  0  0  1  0  0  0  0  0  0  0  0
   -1.6268    7.5487    0.7250 F   0  0  0  1  0  0  0  0  0  0  0  0
   -2.2607    6.3650    0.8308 C   0  0  0  1  0  0  0  0  0  0  0  0
   -1.5303    5.2017    1.0166 C   0  0  0  1  0  0  0  0  0  0  0  0
   -2.1803    3.9864    1.1198 C   0  0  0  1  0  0  0  0  0  0  0  0
   -3.5633    3.9316    1.0429 C   0  0  0  1  0  0  0  0  0  0  0  0
   -4.2918    5.0914    0.8576 C   0  0  0  1  0  0  0  0  0  0  0  0
   -3.6396    6.3102    0.7541 C   0  0  0  1  0  0  0  0  0  0  0  0
   -1.4379    2.6859    1.3169 C   0  0  0  1  0  0  0  0  0  0  0  0
   -0.4929    5.2433    1.0783 H   0  0  0  1  0  0  0  0  0  0  0  0
   -4.0527    3.0176    1.1246 H   0  0  0  1  0  0  0  0  0  0  0  0
   -5.3291    5.0497    0.7959 H   0  0  0  1  0  0  0  0  0  0  0  0
   -4.1880    7.1835    0.6187 H   0  0  0  1  0  0  0  0  0  0  0  0
   -2.0320    1.8906    0.9175 H   0  0  0  1  0  0  0  0  0  0  0  0
   -0.5101    2.7396    0.7867 H   0  0  0  1  0  0  0  0  0  0  0  0
  1  4  1  0  0  0  0
  2  4  1  0  0  0  0
  2  5  2  0  0  0  0
  2  6  1  0  0  0  0
  3  4  1  0  0  0  0
  3  7  1  0  0  0  0
  3  8  1  0  0  0  0
  4 26  1  0  0  0  0
  6  9  1  0  0  0  0
  6 12  1  0  0  0  0
  8 10  1  0  0  0  0
  8 11  2  0  0  0  0
  9 13  1  0  0  0  0
  9 14  1  0  0  0  0
  9 15  1  0  0  0  0
 10 16  1  0  0  0  0
 10 17  1  0  0  0  0
 10 18  1  0  0  0  0
 19 20  1  0  0  0  0
 20 21  4  0  0  0  0
 20 25  4  0  0  0  0
 21 22  4  0  0  0  0
 21 27  1  0  0  0  0
 22 23  4  0  0  0  0
 22 26  1  0  0  0  0
 23 24  4  0  0  0  0
 23 28  1  0  0  0  0
 24 25  4  0  0  0  0
 24 29  1  0  0  0  0
 25 30  1  0  0  0  0
 26 31  1  0  0  0  0
 26 32  1  0  0  0  0
M  END
> <BCLConfClusterSize>
1

> <ConfClashScore>
0 

> <ConfOneFourInteractionScore>
-0.960318 

> <ConfScore>
-0.255293 

> <ConfScorePBest>
0.00717878 

> <ConfTolerance>
0.209207 

> <RosettaParamsInstructions>
M  ROOT 3
M  POLY_N_BB 3
M  POLY_CA_BB 4
M  POLY_C_BB 2
M  POLY_O_BB 5
M  POLY_IGNORE 9 10 11 12 13 14 15 16 17 18 
M  POLY_UPPER 6
M  POLY_LOWER 8
M  POLY_CHG 0
M  POLY_PROPERTIES ALPHA_AA L_AA PROTEIN AROMATIC POLYMER 
M  END

$$$$



 32 32  0  0  0  0  0  0  0  0999 V2000
   -1.7109    1.9637   -0.6979 H   0  0  0  1  0  0  0  0  0  0  0  0
   -0.0469    3.2435   -0.8326 C   0  0  0  1  0  0  0  0  0  0  0  0
   -0.0605    1.0056    0.0779 N   0  0  0  1  0  0  0  0  0  0  0  0
   -0.8655    2.2065   -0.0886 C   0  0  0  1  0  0  0  0  0  0  0  0
   -0.5818    4.1636   -1.4290 O   0  0  0  1  0  0  0  0  0  0  0  0
    1.2845    3.0776   -0.7875 N   0  0  0  1  0  0  0  0  0  0  0  0
    0.1237    0.6612    0.9767 H   0  0  0  1  0  0  0  0  0  0  0  0
    0.4279    0.3717   -0.9919 C   0  0  0  1  0  0  0  0  0  0  0  0
    2.2003    3.9357   -1.5244 C   0  0  0  1  0  0  0  0  0  0  0  0
    1.2658   -0.8816   -0.7369 C   0  0  0  1  0  0  0  0  0  0  0  0
    0.2939    0.8027   -2.1254 O   0  0  0  1  0  0  0  0  0  0  0  0
    1.6526    2.3535   -0.2393 H   0  0  0  1  0  0  0  0  0  0  0  0
    1.6788    4.4033   -2.3332 H   0  0  0  1  0  0  0  0  0  0  0  0
    3.0057    3.3476   -1.9121 H   0  0  0  1  0  0  0  0  0  0  0  0
    2.5896    4.6870   -0.8695 H   0  0  0  1  0  0  0  0  0  0  0  0
    0.6531   -1.6358   -0.2890 H   0  0  0  1  0  0  0  0  0  0  0  0
    2.0743   -0.6418   -0.0783 H   0  0  0  1  0  0  0  0  0  0  0  0
    1.6564   -1.2441   -1.6647 H   0  0  0  1  0  0  0  0  0  0  0  0
   -1.5925    7.5251    0.7243 F   0  0  0  1  0  0  0  0  0  0  0  0
   -2.2670    6.3642    0.8313 C   0  0  0  1  0  0  0  0  0  0  0  0
   -1.5381    5.2023    1.0317 C   0  0  0  1  0  0  0  0  0  0  0  0
   -2.1892    3.9882    1.1418 C   0  0  0  1  0  0  0  0  0  0  0  0
   -3.5717    3.9331    1.0571 C   0  0  0  1  0  0  0  0  0  0  0  0
   -4.2987    5.0915    0.8572 C   0  0  0  1  0  0  0  0  0  0  0  0
   -3.6455    6.3092    0.7468 C   0  0  0  1  0  0  0  0  0  0  0  0
   -1.3990    2.7061    1.2576 C   0  0  0  1  0  0  0  0  0  0  0  0
   -0.5012    5.2442    1.0993 H   0  0  0  1  0  0  0  0  0  0  0  0
   -4.0620    3.0201    1.1439 H   0  0  0  1  0  0  0  0  0  0  0  0
   -5.3357    5.0496    0.7896 H   0  0  0  1  0  0  0  0  0  0  0  0
   -4.1927    7.1814    0.6004 H   0  0  0  1  0  0  0  0  0  0  0  0
   -0.5690    2.8755    1.9112 H   0  0  0  1  0  0  0  0  0  0  0  0
   -2.0333    1.9516    1.6738 H   0  0  0  1  0  0  0  0  0  0  0  0
  1  4  1  0  0  0  0
  2  4  1  0  0  0  0
  2  5  2  0  0  0  0
  2  6  1  0  0  0  0
  3  4  1  0  0  0  0
  3  7  1  0  0  0  0
  3  8  1  0  0  0  0
  4 26  1  0  0  0  0
  6  9  1  0  0  0  0
  6 12  1  0  0  0  0
  8 10  1  0  0  0  0
  8 11  2  0  0  0  0
  9 13  1  0  0  0  0
  9 14  1  0  0  0  0
  9 15  1  0  0  0  0
 10 16  1  0  0  0  0
 10 17  1  0  0  0  0
 10 18  1  0  0  0  0
 19 20  1  0  0  0  0
 20 21  4  0  0  0  0
 20 25  4  0  0  0  0
 21 22  4  0  0  0  0
 21 27  1  0  0  0  0
 22 23  4  0  0  0  0
 22 26  1  0  0  0  0
 23 24  4  0  0  0  0
 23 28  1  0  0  0  0
 24 25  4  0  0  0  0
 24 29  1  0  0  0  0
 25 30  1  0  0  0  0
 26 31  1  0  0  0  0
 26 32  1  0  0  0  0
M  END
> <BCLConfClusterSize>
1

> <ConfClashScore>
0 

> <ConfOneFourInteractionScore>
-0.937775 

> <ConfScore>
-0.254381 

> <ConfScorePBest>
0.0071503 

> <ConfTolerance>
0.219053 

> <RosettaParamsInstructions>
M  ROOT 3
M  POLY_N_BB 3
M  POLY_CA_BB 4
M  POLY_C_BB 2
M  POLY_O_BB 5
M  POLY_IGNORE 9 10 11 12 13 14 15 16 17 18 
M  POLY_UPPER 6
M  POLY_LOWER 8
M  POLY_CHG 0
M  POLY_PROPERTIES ALPHA_AA L_AA PROTEIN AROMATIC POLYMER 
M  END

$$$$



 32 32  0  0  0  0  0  0  0  0999 V2000
   -0.4869    3.4368    3.1112 H   0  0  0  1  0  0  0  0  0  0  0  0
   -2.1377    2.2287    3.6336 C   0  0  0  1  0  0  0  0  0  0  0  0
    0.0435    1.4506    2.8673 N   0  0  0  1  0  0  0  0  0  0  0  0
   -0.9332    2.5289    2.7628 C   0  0  0  1  0  0  0  0  0  0  0  0
   -2.7666    3.1367    4.1755 O   0  0  0  1  0  0  0  0  0  0  0  0
   -2.4958    0.9450    3.7946 N   0  0  0  1  0  0  0  0  0  0  0  0
    0.2994    0.9895    2.0413 H   0  0  0  1  0  0  0  0  0  0  0  0
    0.6146    1.0448    4.0024 C   0  0  0  1  0  0  0  0  0  0  0  0
   -3.5525    0.4972    4.6895 C   0  0  0  1  0  0  0  0  0  0  0  0
    1.6408   -0.0690    3.9293 C   0  0  0  1  0  0  0  0  0  0  0  0
    0.3586    1.5205    5.1078 O   0  0  0  1  0  0  0  0  0  0  0  0
   -2.0150    0.2661    3.2765 H   0  0  0  1  0  0  0  0  0  0  0  0
   -3.4708    1.0116    5.6242 H   0  0  0  1  0  0  0  0  0  0  0  0
   -3.4586   -0.5560    4.8530 H   0  0  0  1  0  0  0  0  0  0  0  0
   -4.5049    0.7068    4.2493 H   0  0  0  1  0  0  0  0  0  0  0  0
    1.1555   -0.9851    3.6644 H   0  0  0  1  0  0  0  0  0  0  0  0
    2.1153   -0.1796    4.8819 H   0  0  0  1  0  0  0  0  0  0  0  0
    2.3759    0.1716    3.1899 H   0  0  0  1  0  0  0  0  0  0  0  0
   -1.5886    7.5181    0.7310 F   0  0  0  1  0  0  0  0  0  0  0  0
   -2.2671    6.3589    0.8311 C   0  0  0  1  0  0  0  0  0  0  0  0
   -1.5418    5.1924    1.0170 C   0  0  0  1  0  0  0  0  0  0  0  0
   -2.1972    3.9799    1.1195 C   0  0  0  1  0  0  0  0  0  0  0  0
   -3.5803    3.9310    1.0419 C   0  0  0  1  0  0  0  0  0  0  0  0
   -4.3037    5.0941    0.8565 C   0  0  0  1  0  0  0  0  0  0  0  0
   -3.6462    6.3101    0.7537 C   0  0  0  1  0  0  0  0  0  0  0  0
   -1.3583    2.7392    1.3155 C   0  0  0  1  0  0  0  0  0  0  0  0
   -0.5044    5.2295    1.0793 H   0  0  0  1  0  0  0  0  0  0  0  0
   -4.0737    3.0192    1.1230 H   0  0  0  1  0  0  0  0  0  0  0  0
   -5.3412    5.0569    0.7942 H   0  0  0  1  0  0  0  0  0  0  0  0
   -4.1907    7.1858    0.6183 H   0  0  0  1  0  0  0  0  0  0  0  0
   -1.9279    1.8898    1.0010 H   0  0  0  1  0  0  0  0  0  0  0  0
   -0.4793    2.8235    0.7112 H   0  0  0  1  0  0  0  0  0  0  0  0
  1  4  1  0  0  0  0
  2  4  1  0  0  0  0
  2  5  2  0  0  0  0
  2  6  1  0  0  0  0
  3  4  1  0  0  0  0
  3  7  1  0  0  0  0
  3  8  1  0  0  0  0
  4 26  1  0  0  0  0
  6  9  1  0  0  0  0
  6 12  1  0  0  0  0
  8 10  1  0  0  0  0
  8 11  2  0  0  0  0
  9 13  1  0  0  0  0
  9 14  1  0  0  0  0
  9 15  1  0  0  0  0
 10 16  1  0  0  0  0
 10 17  1  0  0  0  0
 10 18  1  0  0  0  0
 19 20  1  0  0  0  0
 20 21  4  0  0  0  0
 20 25  4  0  0  0  0
 21 22  4  0  0  0  0
 21 27  1  0  0  0  0
 22 23  4  0  0  0  0
 22 26  1  0  0  0  0
 23 24  4  0  0  0  0
 23 28  1  0  0  0  0
 24 25  4  0  0  0  0
 24 29  1  0  0  0  0
 25 30  1  0  0  0  0
 26 31  1  0  0  0  0
 26 32  1  0  0  0  0
M  END
> <BCLConfClusterSize>
1

> <ConfClashScore>
0 

> <ConfOneFourInteractionScore>
-0.960318 

> <ConfScore>
-0.253125 

> <ConfScorePBest>
0.00712182 

> <ConfTolerance>
0.19268 

> <RosettaParamsInstructions>
M  ROOT 3
M  POLY_N_BB 3
M  POLY_CA_BB 4
M  POLY_C_BB 2
M  POLY_O_BB 5
M  POLY_IGNORE 9 10 11 12 13 14 15 16 17 18 
M  POLY_UPPER 6
M  POLY_LOWER 8
M  POLY_CHG 0
M  POLY_PROPERTIES ALPHA_AA L_AA PROTEIN AROMATIC POLYMER 
M  END

$$$$



 32 32  0  0  0  0  0  0  0  0999 V2000
   -1.7568    2.6191    3.4157 H   0  0  0  1  0  0  0  0  0  0  0  0
   -0.3543    1.1139    2.9076 C   0  0  0  1  0  0  0  0  0  0  0  0
    0.0874    3.5129    3.0849 N   0  0  0  1  0  0  0  0  0  0  0  0
   -0.9187    2.5133    2.7589 C   0  0  0  1  0  0  0  0  0  0  0  0
    0.7907    0.8530    2.5406 O   0  0  0  1  0  0  0  0  0  0  0  0
   -1.1353    0.1767    3.4471 N   0  0  0  1  0  0  0  0  0  0  0  0
    0.9129    3.5426    2.5576 H   0  0  0  1  0  0  0  0  0  0  0  0
   -0.0765    4.3990    4.0866 C   0  0  0  1  0  0  0  0  0  0  0  0
   -0.7730   -1.2247    3.5971 C   0  0  0  1  0  0  0  0  0  0  0  0
    1.0493    5.4087    4.1973 C   0  0  0  1  0  0  0  0  0  0  0  0
   -1.0359    4.4158    4.8565 O   0  0  0  1  0  0  0  0  0  0  0  0
   -2.0198    0.4527    3.7664 H   0  0  0  1  0  0  0  0  0  0  0  0
   -0.1802   -1.5319    2.7610 H   0  0  0  1  0  0  0  0  0  0  0  0
   -1.6612   -1.8197    3.6421 H   0  0  0  1  0  0  0  0  0  0  0  0
   -0.2112   -1.3531    4.4987 H   0  0  0  1  0  0  0  0  0  0  0  0
    0.8252    6.1098    4.9739 H   0  0  0  1  0  0  0  0  0  0  0  0
    1.1550    5.9281    3.2678 H   0  0  0  1  0  0  0  0  0  0  0  0
    1.9622    4.9007    4.4284 H   0  0  0  1  0  0  0  0  0  0  0  0
   -1.6537    7.5575    0.7223 F   0  0  0  1  0  0  0  0  0  0  0  0
   -2.2545    6.3571    0.8321 C   0  0  0  1  0  0  0  0  0  0  0  0
   -1.5311    5.1894    1.0180 C   0  0  0  1  0  0  0  0  0  0  0  0
   -2.1883    3.9779    1.1203 C   0  0  0  1  0  0  0  0  0  0  0  0
   -3.5715    3.9312    1.0424 C   0  0  0  1  0  0  0  0  0  0  0  0
   -4.2931    5.0954    0.8571 C   0  0  0  1  0  0  0  0  0  0  0  0
   -3.6337    6.3104    0.7545 C   0  0  0  1  0  0  0  0  0  0  0  0
   -1.4001    2.7045    1.3170 C   0  0  0  1  0  0  0  0  0  0  0  0
   -0.4935    5.2249    1.0805 H   0  0  0  1  0  0  0  0  0  0  0  0
   -4.0664    3.0201    1.1234 H   0  0  0  1  0  0  0  0  0  0  0  0
   -5.3306    5.0598    0.7946 H   0  0  0  1  0  0  0  0  0  0  0  0
   -4.1768    7.1869    0.6190 H   0  0  0  1  0  0  0  0  0  0  0  0
   -2.0220    1.8748    1.0528 H   0  0  0  1  0  0  0  0  0  0  0  0
   -0.5458    2.7298    0.6733 H   0  0  0  1  0  0  0  0  0  0  0  0
  1  4  1  0  0  0  0
  2  4  1  0  0  0  0
  2  5  2  0  0  0  0
  2  6  1  0  0  0  0
  3  4  1  0  0  0  0
  3  7  1  0  0  0  0
  3  8  1  0  0  0  0
  4 26  1  0  0  0  0
  6  9  1  0  0  0  0
  6 12  1  0  0  0  0
  8 10  1  0  0  0  0
  8 11  2  0  0  0  0
  9 13  1  0  0  0  0
  9 14  1  0  0  0  0
  9 15  1  0  0  0  0
 10 16  1  0  0  0  0
 10 17  1  0  0  0  0
 10 18  1  0  0  0  0
 19 20  1  0  0  0  0
 20 21  4  0  0  0  0
 20 25  4  0  0  0  0
 21 22  4  0  0  0  0
 21 27  1  0  0  0  0
 22 23  4  0  0  0  0
 22 26  1  0  0  0  0
 23 24  4  0  0  0  0
 23 28  1  0  0  0  0
 24 25  4  0  0  0  0
 24 29  1  0  0  0  0
 25 30  1  0  0  0  0
 26 31  1  0  0  0  0
 26 32  1  0  0  0  0
M  END
> <BCLConfClusterSize>
1

> <ConfClashScore>
0 

> <ConfOneFourInteractionScore>
-0.981931 

> <ConfScore>
-0.249268 

> <ConfScorePBest>
0.00709334 

> <ConfTolerance>
0.234765 

> <RosettaParamsInstructions>
M  ROOT 3
M  POLY_N_BB 3
M  POLY_CA_BB 4
M  POLY_C_BB 2
M  POLY_O_BB 5
M  POLY_IGNORE 9 10 11 12 13 14 15 16 17 18 
M  POLY_UPPER 6
M  POLY_LOWER 8
M  POLY_CHG 0
M  POLY_PROPERTIES ALPHA_AA L_AA PROTEIN AROMATIC POLYMER 
M  END

$$$$



 32 32  0  0  0  0  0  0  0  0999 V2000
    0.1839    3.3375    0.0476 H   0  0  0  1  0  0  0  0  0  0  0  0
    0.5588    1.3219    0.5728 C   0  0  0  1  0  0  0  0  0  0  0  0
   -1.0787    2.1239   -1.0523 N   0  0  0  1  0  0  0  0  0  0  0  0
   -0.3932    2.4477    0.1900 C   0  0  0  1  0  0  0  0  0  0  0  0
    1.6647    1.5579    1.0574 O   0  0  0  1  0  0  0  0  0  0  0  0
    0.1105    0.0769    0.3468 N   0  0  0  1  0  0  0  0  0  0  0  0
   -2.0569    2.0796   -1.0913 H   0  0  0  1  0  0  0  0  0  0  0  0
   -0.3364    1.8887   -2.1380 C   0  0  0  1  0  0  0  0  0  0  0  0
    0.8570   -1.1041    0.7539 C   0  0  0  1  0  0  0  0  0  0  0  0
   -1.1097    1.5561   -3.4101 C   0  0  0  1  0  0  0  0  0  0  0  0
    0.8928    1.9329   -2.1313 O   0  0  0  1  0  0  0  0  0  0  0  0
   -0.7495   -0.0408   -0.1082 H   0  0  0  1  0  0  0  0  0  0  0  0
    1.9057   -0.9146    0.6574 H   0  0  0  1  0  0  0  0  0  0  0  0
    0.5853   -1.9301    0.1302 H   0  0  0  1  0  0  0  0  0  0  0  0
    0.6291   -1.3361    1.7732 H   0  0  0  1  0  0  0  0  0  0  0  0
   -1.2320    2.4431   -3.9960 H   0  0  0  1  0  0  0  0  0  0  0  0
   -2.0713    1.1650   -3.1507 H   0  0  0  1  0  0  0  0  0  0  0  0
   -0.5684    0.8270   -3.9760 H   0  0  0  1  0  0  0  0  0  0  0  0
   -1.6228    7.5417    0.7261 F   0  0  0  1  0  0  0  0  0  0  0  0
   -2.2608    6.3603    0.8314 C   0  0  0  1  0  0  0  0  0  0  0  0
   -1.5345    5.1943    1.0172 C   0  0  0  1  0  0  0  0  0  0  0  0
   -2.1888    3.9813    1.1199 C   0  0  0  1  0  0  0  0  0  0  0  0
   -3.5719    3.9313    1.0424 C   0  0  0  1  0  0  0  0  0  0  0  0
   -4.2963    5.0937    0.8570 C   0  0  0  1  0  0  0  0  0  0  0  0
   -3.6399    6.3103    0.7541 C   0  0  0  1  0  0  0  0  0  0  0  0
   -1.3975    2.7098    1.3166 C   0  0  0  1  0  0  0  0  0  0  0  0
   -0.4971    5.2324    1.0794 H   0  0  0  1  0  0  0  0  0  0  0  0
   -4.0646    3.0190    1.1236 H   0  0  0  1  0  0  0  0  0  0  0  0
   -5.3338    5.0556    0.7949 H   0  0  0  1  0  0  0  0  0  0  0  0
   -4.1852    7.1855    0.6187 H   0  0  0  1  0  0  0  0  0  0  0  0
   -0.8622    2.7813    2.2403 H   0  0  0  1  0  0  0  0  0  0  0  0
   -2.0804    1.8873    1.3622 H   0  0  0  1  0  0  0  0  0  0  0  0
  1  4  1  0  0  0  0
  2  4  1  0  0  0  0
  2  5  2  0  0  0  0
  2  6  1  0  0  0  0
  3  4  1  0  0  0  0
  3  7  1  0  0  0  0
  3  8  1  0  0  0  0
  4 26  1  0  0  0  0
  6  9  1  0  0  0  0
  6 12  1  0  0  0  0
  8 10  1  0  0  0  0
  8 11  2  0  0  0  0
  9 13  1  0  0  0  0
  9 14  1  0  0  0  0
  9 15  1  0  0  0  0
 10 16  1  0  0  0  0
 10 17  1  0  0  0  0
 10 18  1  0  0  0  0
 19 20  1  0  0  0  0
 20 21  4  0  0  0  0
 20 25  4  0  0  0  0
 21 22  4  0  0  0  0
 21 27  1  0  0  0  0
 22 23  4  0  0  0  0
 22 26  1  0  0  0  0
 23 24  4  0  0  0  0
 23 28  1  0  0  0  0
 24 25  4  0  0  0  0
 24 29  1  0  0  0  0
 25 30  1  0  0  0  0
 26 31  1  0  0  0  0
 26 32  1  0  0  0  0
M  END
> <BCLConfClusterSize>
1

> <ConfClashScore>
0 

> <ConfOneFourInteractionScore>
-0.960318 

> <ConfScore>
-0.249106 

> <ConfScorePBest>
0.00706485 

> <ConfTolerance>
0.338914 

> <RosettaParamsInstructions>
M  ROOT 3
M  POLY_N_BB 3
M  POLY_CA_BB 4
M  POLY_C_BB 2
M  POLY_O_BB 5
M  POLY_IGNORE 9 10 11 12 13 14 15 16 17 18 
M  POLY_UPPER 6
M  POLY_LOWER 8
M  POLY_CHG 0
M  POLY_PROPERTIES ALPHA_AA L_AA PROTEIN AROMATIC POLYMER 
M  END

$$$$



 32 32  0  0  0  0  0  0  0  0999 V2000
   -0.1448    3.0763   -0.3191 H   0  0  0  1  0  0  0  0  0  0  0  0
    0.2862    1.1091    0.2286 C   0  0  0  1  0  0  0  0  0  0  0  0
   -1.7049    1.9116   -0.9912 N   0  0  0  1  0  0  0  0  0  0  0  0
   -0.7055    2.2417    0.0470 C   0  0  0  1  0  0  0  0  0  0  0  0
    0.0306   -0.0228   -0.1480 O   0  0  0  1  0  0  0  0  0  0  0  0
    1.4441    1.4376    0.8232 N   0  0  0  1  0  0  0  0  0  0  0  0
   -2.4189    1.2694   -0.7959 H   0  0  0  1  0  0  0  0  0  0  0  0
   -1.6359    2.4925   -2.2069 C   0  0  0  1  0  0  0  0  0  0  0  0
    2.3975    0.4353    1.2753 C   0  0  0  1  0  0  0  0  0  0  0  0
   -2.6726    2.1033   -3.2428 C   0  0  0  1  0  0  0  0  0  0  0  0
   -0.7588    3.3142   -2.4699 O   0  0  0  1  0  0  0  0  0  0  0  0
    1.6547    2.3852    0.9575 H   0  0  0  1  0  0  0  0  0  0  0  0
    2.0014   -0.5420    1.0940 H   0  0  0  1  0  0  0  0  0  0  0  0
    2.5749    0.5592    2.3232 H   0  0  0  1  0  0  0  0  0  0  0  0
    3.3173    0.5518    0.7411 H   0  0  0  1  0  0  0  0  0  0  0  0
   -3.6505    2.1767   -2.8146 H   0  0  0  1  0  0  0  0  0  0  0  0
   -2.4977    1.0969   -3.5614 H   0  0  0  1  0  0  0  0  0  0  0  0
   -2.6012    2.7615   -4.0833 H   0  0  0  1  0  0  0  0  0  0  0  0
   -1.5924    7.5248    0.7300 F   0  0  0  1  0  0  0  0  0  0  0  0
   -2.2671    6.3635    0.8306 C   0  0  0  1  0  0  0  0  0  0  0  0
   -1.5379    5.1994    1.0164 C   0  0  0  1  0  0  0  0  0  0  0  0
   -2.1893    3.9848    1.1194 C   0  0  0  1  0  0  0  0  0  0  0  0
   -3.5723    3.9314    1.0423 C   0  0  0  1  0  0  0  0  0  0  0  0
   -4.2996    5.0921    0.8570 C   0  0  0  1  0  0  0  0  0  0  0  0
   -3.6461    6.3102    0.7537 C   0  0  0  1  0  0  0  0  0  0  0  0
   -1.3949    2.7152    1.3161 C   0  0  0  1  0  0  0  0  0  0  0  0
   -0.5006    5.2399    1.0783 H   0  0  0  1  0  0  0  0  0  0  0  0
   -4.0627    3.0180    1.1239 H   0  0  0  1  0  0  0  0  0  0  0  0
   -5.3369    5.0515    0.7952 H   0  0  0  1  0  0  0  0  0  0  0  0
   -4.1935    7.1841    0.6183 H   0  0  0  1  0  0  0  0  0  0  0  0
   -0.6494    2.8922    2.0629 H   0  0  0  1  0  0  0  0  0  0  0  0
   -2.0594    1.9460    1.6500 H   0  0  0  1  0  0  0  0  0  0  0  0
  1  4  1  0  0  0  0
  2  4  1  0  0  0  0
  2  5  2  0  0  0  0
  2  6  1  0  0  0  0
  3  4  1  0  0  0  0
  3  7  1  0  0  0  0
  3  8  1  0  0  0  0
  4 26  1  0  0  0  0
  6  9  1  0  0  0  0
  6 12  1  0  0  0  0
  8 10  1  0  0  0  0
  8 11  2  0  0  0  0
  9 13  1  0  0  0  0
  9 14  1  0  0  0  0
  9 15  1  0  0  0  0
 10 16  1  0  0  0  0
 10 17  1  0  0  0  0
 10 18  1  0  0  0  0
 19 20  1  0  0  0  0
 20 21  4  0  0  0  0
 20 25  4  0  0  0  0
 21 22  4  0  0  0  0
 21 27  1  0  0  0  0
 22 23  4  0  0  0  0
 22 26  1  0  0  0  0
 23 24  4  0  0  0  0
 23 28  1  0  0  0  0
 24 25  4  0  0  0  0
 24 29  1  0  0  0  0
 25 30  1  0  0  0  0
 26 31  1  0  0  0  0
 26 32  1  0  0  0  0
M  END
> <BCLConfClusterSize>
1

> <ConfClashScore>
0 

> <ConfOneFourInteractionScore>
-0.985807 

> <ConfScore>
-0.24342 

> <ConfScorePBest>
0.00703637 

> <ConfTolerance>
0.256885 

> <RosettaParamsInstructions>
M  ROOT 3
M  POLY_N_BB 3
M  POLY_CA_BB 4
M  POLY_C_BB 2
M  POLY_O_BB 5
M  POLY_IGNORE 9 10 11 12 13 14 15 16 17 18 
M  POLY_UPPER 6
M  POLY_LOWER 8
M  POLY_CHG 0
M  POLY_PROPERTIES ALPHA_AA L_AA PROTEIN AROMATIC POLYMER 
M  END

$$$$



 32 32  0  0  0  0  0  0  0  0999 V2000
   -2.0249    2.4197    3.2202 H   0  0  0  1  0  0  0  0  0  0  0  0
   -0.6752    0.8695    2.9095 C   0  0  0  1  0  0  0  0  0  0  0  0
   -0.1652    3.2639    3.3446 N   0  0  0  1  0  0  0  0  0  0  0  0
   -1.0957    2.3164    2.6997 C   0  0  0  1  0  0  0  0  0  0  0  0
    0.4956    0.5723    3.1431 O   0  0  0  1  0  0  0  0  0  0  0  0
   -1.6573   -0.0416    2.8227 N   0  0  0  1  0  0  0  0  0  0  0  0
    0.6997    3.4600    2.9278 H   0  0  0  1  0  0  0  0  0  0  0  0
   -0.5032    3.8605    4.5066 C   0  0  0  1  0  0  0  0  0  0  0  0
   -1.4332   -1.4541    3.0921 C   0  0  0  1  0  0  0  0  0  0  0  0
    0.4462    4.8875    5.0808 C   0  0  0  1  0  0  0  0  0  0  0  0
   -1.5525    3.5788    5.0839 O   0  0  0  1  0  0  0  0  0  0  0  0
   -2.5563    0.2547    2.5691 H   0  0  0  1  0  0  0  0  0  0  0  0
   -0.5111   -1.7612    2.6446 H   0  0  0  1  0  0  0  0  0  0  0  0
   -2.2374   -2.0274    2.6804 H   0  0  0  1  0  0  0  0  0  0  0  0
   -1.3864   -1.6123    4.1493 H   0  0  0  1  0  0  0  0  0  0  0  0
    1.1696    5.1585    4.3404 H   0  0  0  1  0  0  0  0  0  0  0  0
    0.9453    4.4746    5.9324 H   0  0  0  1  0  0  0  0  0  0  0  0
   -0.1044    5.7562    5.3759 H   0  0  0  1  0  0  0  0  0  0  0  0
   -1.6229    7.5419    0.7201 F   0  0  0  1  0  0  0  0  0  0  0  0
   -2.2607    6.3610    0.8321 C   0  0  0  1  0  0  0  0  0  0  0  0
   -1.5347    5.1973    1.0326 C   0  0  0  1  0  0  0  0  0  0  0  0
   -2.1888    3.9847    1.1423 C   0  0  0  1  0  0  0  0  0  0  0  0
   -3.5713    3.9330    1.0571 C   0  0  0  1  0  0  0  0  0  0  0  0
   -4.2955    5.0931    0.8572 C   0  0  0  1  0  0  0  0  0  0  0  0
   -3.6393    6.3092    0.7473 C   0  0  0  1  0  0  0  0  0  0  0  0
   -1.4017    2.7007    1.2580 C   0  0  0  1  0  0  0  0  0  0  0  0
   -0.4977    5.2366    1.1005 H   0  0  0  1  0  0  0  0  0  0  0  0
   -4.0638    3.0211    1.1436 H   0  0  0  1  0  0  0  0  0  0  0  0
   -5.3325    5.0537    0.7893 H   0  0  0  1  0  0  0  0  0  0  0  0
   -4.1844    7.1828    0.6009 H   0  0  0  1  0  0  0  0  0  0  0  0
   -1.9682    1.9123    0.8083 H   0  0  0  1  0  0  0  0  0  0  0  0
   -0.4766    2.8199    0.7336 H   0  0  0  1  0  0  0  0  0  0  0  0
  1  4  1  0  0  0  0
  2  4  1  0  0  0  0
  2  5  2  0  0  0  0
  2  6  1  0  0  0  0
  3  4  1  0  0  0  0
  3  7  1  0  0  0  0
  3  8  1  0  0  0  0
  4 26  1  0  0  0  0
  6  9  1  0  0  0  0
  6 12  1  0  0  0  0
  8 10  1  0  0  0  0
  8 11  2  0  0  0  0
  9 13  1  0  0  0  0
  9 14  1  0  0  0  0
  9 15  1  0  0  0  0
 10 16  1  0  0  0  0
 10 17  1  0  0  0  0
 10 18  1  0  0  0  0
 19 20  1  0  0  0  0
 20 21  4  0  0  0  0
 20 25  4  0  0  0  0
 21 22  4  0  0  0  0
 21 27  1  0  0  0  0
 22 23  4  0  0  0  0
 22 26  1  0  0  0  0
 23 24  4  0  0  0  0
 23 28  1  0  0  0  0
 24 25  4  0  0  0  0
 24 29  1  0  0  0  0
 25 30  1  0  0  0  0
 26 31  1  0  0  0  0
 26 32  1  0  0  0  0
M  END
> <BCLConfClusterSize>
1

> <ConfClashScore>
0 

> <ConfOneFourInteractionScore>
-0.982002 

> <ConfScore>
-0.240693 

> <ConfScorePBest>
0.00700789 

> <ConfTolerance>
0.288098 

> <RosettaParamsInstructions>
M  ROOT 3
M  POLY_N_BB 3
M  POLY_CA_BB 4
M  POLY_C_BB 2
M  POLY_O_BB 5
M  POLY_IGNORE 9 10 11 12 13 14 15 16 17 18 
M  POLY_UPPER 6
M  POLY_LOWER 8
M  POLY_CHG 0
M  POLY_PROPERTIES ALPHA_AA L_AA PROTEIN AROMATIC POLYMER 
M  END

$$$$



 32 32  0  0  0  0  0  0  0  0999 V2000
   -1.9676    1.8170   -0.5637 H   0  0  0  1  0  0  0  0  0  0  0  0
   -0.3675    3.1195   -0.9994 C   0  0  0  1  0  0  0  0  0  0  0  0
   -0.2473    0.8930    0.0942 N   0  0  0  1  0  0  0  0  0  0  0  0
   -1.0481    2.0975   -0.0938 C   0  0  0  1  0  0  0  0  0  0  0  0
   -1.0032    3.7451   -1.8469 O   0  0  0  1  0  0  0  0  0  0  0  0
    0.9447    3.2819   -0.8078 N   0  0  0  1  0  0  0  0  0  0  0  0
    0.0122    0.6346    1.0032 H   0  0  0  1  0  0  0  0  0  0  0  0
    0.1436    0.1324   -0.9264 C   0  0  0  1  0  0  0  0  0  0  0  0
    1.8527    4.1208   -1.5757 C   0  0  0  1  0  0  0  0  0  0  0  0
    1.1221   -0.9977   -0.5951 C   0  0  0  1  0  0  0  0  0  0  0  0
   -0.2099    0.2590   -2.0957 O   0  0  0  1  0  0  0  0  0  0  0  0
    1.3408    2.7789   -0.0658 H   0  0  0  1  0  0  0  0  0  0  0  0
    1.3496    5.0194   -1.8658 H   0  0  0  1  0  0  0  0  0  0  0  0
    2.1722    3.5930   -2.4500 H   0  0  0  1  0  0  0  0  0  0  0  0
    2.7041    4.3666   -0.9760 H   0  0  0  1  0  0  0  0  0  0  0  0
    0.8956   -1.3939    0.3727 H   0  0  0  1  0  0  0  0  0  0  0  0
    2.1217   -0.6161   -0.5990 H   0  0  0  1  0  0  0  0  0  0  0  0
    1.0326   -1.7727   -1.3274 H   0  0  0  1  0  0  0  0  0  0  0  0
   -1.5925    7.5251    0.7243 F   0  0  0  1  0  0  0  0  0  0  0  0
   -2.2670    6.3642    0.8313 C   0  0  0  1  0  0  0  0  0  0  0  0
   -1.5381    5.2023    1.0317 C   0  0  0  1  0  0  0  0  0  0  0  0
   -2.1892    3.9882    1.1418 C   0  0  0  1  0  0  0  0  0  0  0  0
   -3.5717    3.9331    1.0571 C   0  0  0  1  0  0  0  0  0  0  0  0
   -4.2987    5.0915    0.8572 C   0  0  0  1  0  0  0  0  0  0  0  0
   -3.6455    6.3092    0.7468 C   0  0  0  1  0  0  0  0  0  0  0  0
   -1.3990    2.7061    1.2576 C   0  0  0  1  0  0  0  0  0  0  0  0
   -0.5012    5.2442    1.0993 H   0  0  0  1  0  0  0  0  0  0  0  0
   -4.0620    3.0201    1.1439 H   0  0  0  1  0  0  0  0  0  0  0  0
   -5.3357    5.0496    0.7896 H   0  0  0  1  0  0  0  0  0  0  0  0
   -4.1927    7.1814    0.6004 H   0  0  0  1  0  0  0  0  0  0  0  0
   -0.4908    2.9123    1.7844 H   0  0  0  1  0  0  0  0  0  0  0  0
   -1.9794    1.9971    1.8101 H   0  0  0  1  0  0  0  0  0  0  0  0
  1  4  1  0  0  0  0
  2  4  1  0  0  0  0
  2  5  2  0  0  0  0
  2  6  1  0  0  0  0
  3  4  1  0  0  0  0
  3  7  1  0  0  0  0
  3  8  1  0  0  0  0
  4 26  1  0  0  0  0
  6  9  1  0  0  0  0
  6 12  1  0  0  0  0
  8 10  1  0  0  0  0
  8 11  2  0  0  0  0
  9 13  1  0  0  0  0
  9 14  1  0  0  0  0
  9 15  1  0  0  0  0
 10 16  1  0  0  0  0
 10 17  1  0  0  0  0
 10 18  1  0  0  0  0
 19 20  1  0  0  0  0
 20 21  4  0  0  0  0
 20 25  4  0  0  0  0
 21 22  4  0  0  0  0
 21 27  1  0  0  0  0
 22 23  4  0  0  0  0
 22 26  1  0  0  0  0
 23 24  4  0  0  0  0
 23 28  1  0  0  0  0
 24 25  4  0  0  0  0
 24 29  1  0  0  0  0
 25 30  1  0  0  0  0
 26 31  1  0  0  0  0
 26 32  1  0  0  0  0
M  END
> <BCLConfClusterSize>
1

> <ConfClashScore>
0 

> <ConfOneFourInteractionScore>
-0.960318 

> <ConfScore>
-0.237382 

> <ConfScorePBest>
0.00697941 

> <ConfTolerance>
0.237116 

> <RosettaParamsInstructions>
M  ROOT 3
M  POLY_N_BB 3
M  POLY_CA_BB 4
M  POLY_C_BB 2
M  POLY_O_BB 5
M  POLY_IGNORE 9 10 11 12 13 14 15 16 17 18 
M  POLY_UPPER 6
M  POLY_LOWER 8
M  POLY_CHG 0
M  POLY_PROPERTIES ALPHA_AA L_AA PROTEIN AROMATIC POLYMER 
M  END

$$$$



 32 32  0  0  0  0  0  0  0  0999 V2000
   -2.1984    2.2170    3.1961 H   0  0  0  1  0  0  0  0  0  0  0  0
   -0.4265    1.1158    2.9555 C   0  0  0  1  0  0  0  0  0  0  0  0
   -0.6700    3.5466    3.5173 N   0  0  0  1  0  0  0  0  0  0  0  0
   -1.2220    2.4061    2.8015 C   0  0  0  1  0  0  0  0  0  0  0  0
    0.8004    1.1849    2.8959 O   0  0  0  1  0  0  0  0  0  0  0  0
   -1.0981   -0.0178    3.1463 N   0  0  0  1  0  0  0  0  0  0  0  0
    0.2713    3.7814    3.3788 H   0  0  0  1  0  0  0  0  0  0  0  0
   -1.4019    4.2846    4.3568 C   0  0  0  1  0  0  0  0  0  0  0  0
   -0.4321   -1.3072    3.2539 C   0  0  0  1  0  0  0  0  0  0  0  0
   -0.7315    5.5423    4.9160 C   0  0  0  1  0  0  0  0  0  0  0  0
   -2.5421    4.0446    4.7099 O   0  0  0  1  0  0  0  0  0  0  0  0
   -2.0749    0.0174    3.2167 H   0  0  0  1  0  0  0  0  0  0  0  0
    0.5476   -1.1703    3.6618 H   0  0  0  1  0  0  0  0  0  0  0  0
   -0.3552   -1.7508    2.2832 H   0  0  0  1  0  0  0  0  0  0  0  0
   -0.9990   -1.9487    3.8958 H   0  0  0  1  0  0  0  0  0  0  0  0
   -1.4800    6.2646    5.1668 H   0  0  0  1  0  0  0  0  0  0  0  0
   -0.0728    5.9527    4.1793 H   0  0  0  1  0  0  0  0  0  0  0  0
   -0.1730    5.2886    5.7928 H   0  0  0  1  0  0  0  0  0  0  0  0
   -1.6228    7.5417    0.7261 F   0  0  0  1  0  0  0  0  0  0  0  0
   -2.2608    6.3603    0.8314 C   0  0  0  1  0  0  0  0  0  0  0  0
   -1.5345    5.1943    1.0172 C   0  0  0  1  0  0  0  0  0  0  0  0
   -2.1888    3.9813    1.1199 C   0  0  0  1  0  0  0  0  0  0  0  0
   -3.5719    3.9313    1.0424 C   0  0  0  1  0  0  0  0  0  0  0  0
   -4.2963    5.0937    0.8570 C   0  0  0  1  0  0  0  0  0  0  0  0
   -3.6399    6.3103    0.7541 C   0  0  0  1  0  0  0  0  0  0  0  0
   -1.3975    2.7098    1.3166 C   0  0  0  1  0  0  0  0  0  0  0  0
   -0.4971    5.2324    1.0794 H   0  0  0  1  0  0  0  0  0  0  0  0
   -4.0646    3.0190    1.1236 H   0  0  0  1  0  0  0  0  0  0  0  0
   -5.3338    5.0556    0.7949 H   0  0  0  1  0  0  0  0  0  0  0  0
   -4.1852    7.1855    0.6187 H   0  0  0  1  0  0  0  0  0  0  0  0
   -1.9167    1.8980    0.8514 H   0  0  0  1  0  0  0  0  0  0  0  0
   -0.4340    2.8229    0.8653 H   0  0  0  1  0  0  0  0  0  0  0  0
  1  4  1  0  0  0  0
  2  4  1  0  0  0  0
  2  5  2  0  0  0  0
  2  6  1  0  0  0  0
  3  4  1  0  0  0  0
  3  7  1  0  0  0  0
  3  8  1  0  0  0  0
  4 26  1  0  0  0  0
  6  9  1  0  0  0  0
  6 12  1  0  0  0  0
  8 10  1  0  0  0  0
  8 11  2  0  0  0  0
  9 13  1  0  0  0  0
  9 14  1  0  0  0  0
  9 15  1  0  0  0  0
 10 16  1  0  0  0  0
 10 17  1  0  0  0  0
 10 18  1  0  0  0  0
 19 20  1  0  0  0  0
 20 21  4  0  0  0  0
 20 25  4  0  0  0  0
 21 22  4  0  0  0  0
 21 27  1  0  0  0  0
 22 23  4  0  0  0  0
 22 26  1  0  0  0  0
 23 24  4  0  0  0  0
 23 28  1  0  0  0  0
 24 25  4  0  0  0  0
 24 29  1  0  0  0  0
 25 30  1  0  0  0  0
 26 31  1  0  0  0  0
 26 32  1  0  0  0  0
M  END
> <BCLConfClusterSize>
1

> <ConfClashScore>
0 

> <ConfOneFourInteractionScore>
-0.990503 

> <ConfScore>
-0.234712 

> <ConfScorePBest>
0.00695093 

> <ConfTolerance>
0.266808 

> <RosettaParamsInstructions>
M  ROOT 3
M  POLY_N_BB 3
M  POLY_CA_BB 4
M  POLY_C_BB 2
M  POLY_O_BB 5
M  POLY_IGNORE 9 10 11 12 13 14 15 16 17 18 
M  POLY_UPPER 6
M  POLY_LOWER 8
M  POLY_CHG 0
M  POLY_PROPERTIES ALPHA_AA L_AA PROTEIN AROMATIC POLYMER 
M  END

$$$$



 32 32  0  0  0  0  0  0  0  0999 V2000
   -1.9319    2.2973    3.3091 H   0  0  0  1  0  0  0  0  0  0  0  0
   -0.0805    1.3485    2.9694 C   0  0  0  1  0  0  0  0  0  0  0  0
   -0.4938    3.7687    3.3243 N   0  0  0  1  0  0  0  0  0  0  0  0
   -1.0295    2.5286    2.7829 C   0  0  0  1  0  0  0  0  0  0  0  0
   -0.4894    0.2567    3.3556 O   0  0  0  1  0  0  0  0  0  0  0  0
    1.2015    1.5855    2.6873 N   0  0  0  1  0  0  0  0  0  0  0  0
   -0.0017    4.3550    2.7123 H   0  0  0  1  0  0  0  0  0  0  0  0
   -0.6225    4.1681    4.5927 C   0  0  0  1  0  0  0  0  0  0  0  0
    2.2307    0.5671    2.8329 C   0  0  0  1  0  0  0  0  0  0  0  0
   -0.1012    5.5580    4.9018 C   0  0  0  1  0  0  0  0  0  0  0  0
   -1.1279    3.4681    5.4662 O   0  0  0  1  0  0  0  0  0  0  0  0
    1.4592    2.4766    2.3710 H   0  0  0  1  0  0  0  0  0  0  0  0
    1.7906   -0.4028    2.7304 H   0  0  0  1  0  0  0  0  0  0  0  0
    2.6830    0.6529    3.7989 H   0  0  0  1  0  0  0  0  0  0  0  0
    2.9755    0.7022    2.0766 H   0  0  0  1  0  0  0  0  0  0  0  0
    0.2752    6.0057    4.0058 H   0  0  0  1  0  0  0  0  0  0  0  0
    0.6851    5.4913    5.6244 H   0  0  0  1  0  0  0  0  0  0  0  0
   -0.8961    6.1579    5.2932 H   0  0  0  1  0  0  0  0  0  0  0  0
   -1.5924    7.5248    0.7300 F   0  0  0  1  0  0  0  0  0  0  0  0
   -2.2671    6.3635    0.8306 C   0  0  0  1  0  0  0  0  0  0  0  0
   -1.5379    5.1994    1.0164 C   0  0  0  1  0  0  0  0  0  0  0  0
   -2.1893    3.9848    1.1194 C   0  0  0  1  0  0  0  0  0  0  0  0
   -3.5723    3.9314    1.0423 C   0  0  0  1  0  0  0  0  0  0  0  0
   -4.2996    5.0921    0.8570 C   0  0  0  1  0  0  0  0  0  0  0  0
   -3.6461    6.3102    0.7537 C   0  0  0  1  0  0  0  0  0  0  0  0
   -1.3949    2.7152    1.3161 C   0  0  0  1  0  0  0  0  0  0  0  0
   -0.5006    5.2399    1.0783 H   0  0  0  1  0  0  0  0  0  0  0  0
   -4.0627    3.0180    1.1239 H   0  0  0  1  0  0  0  0  0  0  0  0
   -5.3369    5.0515    0.7952 H   0  0  0  1  0  0  0  0  0  0  0  0
   -4.1935    7.1841    0.6183 H   0  0  0  1  0  0  0  0  0  0  0  0
   -1.9810    1.8809    0.9916 H   0  0  0  1  0  0  0  0  0  0  0  0
   -0.4979    2.7692    0.7352 H   0  0  0  1  0  0  0  0  0  0  0  0
  1  4  1  0  0  0  0
  2  4  1  0  0  0  0
  2  5  2  0  0  0  0
  2  6  1  0  0  0  0
  3  4  1  0  0  0  0
  3  7  1  0  0  0  0
  3  8  1  0  0  0  0
  4 26  1  0  0  0  0
  6  9  1  0  0  0  0
  6 12  1  0  0  0  0
  8 10  1  0  0  0  0
  8 11  2  0  0  0  0
  9 13  1  0  0  0  0
  9 14  1  0  0  0  0
  9 15  1  0  0  0  0
 10 16  1  0  0  0  0
 10 17  1  0  0  0  0
 10 18  1  0  0  0  0
 19 20  1  0  0  0  0
 20 21  4  0  0  0  0
 20 25  4  0  0  0  0
 21 22  4  0  0  0  0
 21 27  1  0  0  0  0
 22 23  4  0  0  0  0
 22 26  1  0  0  0  0
 23 24  4  0  0  0  0
 23 28  1  0  0  0  0
 24 25  4  0  0  0  0
 24 29  1  0  0  0  0
 25 30  1  0  0  0  0
 26 31  1  0  0  0  0
 26 32  1  0  0  0  0
M  END
> <BCLConfClusterSize>
1

> <ConfClashScore>
0 

> <ConfOneFourInteractionScore>
-0.960318 

> <ConfScore>
-0.234088 

> <ConfScorePBest>
0.00692245 

> <ConfTolerance>
0.319746 

> <RosettaParamsInstructions>
M  ROOT 3
M  POLY_N_BB 3
M  POLY_CA_BB 4
M  POLY_C_BB 2
M  POLY_O_BB 5
M  POLY_IGNORE 9 10 11 12 13 14 15 16 17 18 
M  POLY_UPPER 6
M  POLY_LOWER 8
M  POLY_CHG 0
M  POLY_PROPERTIES ALPHA_AA L_AA PROTEIN AROMATIC POLYMER 
M  END

$$$$



 32 32  0  0  0  0  0  0  0  0999 V2000
   -1.7813    2.5771    3.3771 H   0  0  0  1  0  0  0  0  0  0  0  0
   -0.2777    1.1648    2.9591 C   0  0  0  1  0  0  0  0  0  0  0  0
   -0.0211    3.6235    3.1536 N   0  0  0  1  0  0  0  0  0  0  0  0
   -0.9083    2.5348    2.7599 C   0  0  0  1  0  0  0  0  0  0  0  0
   -0.9824    0.2719    3.4280 O   0  0  0  1  0  0  0  0  0  0  0  0
    1.0002    1.0458    2.6047 N   0  0  0  1  0  0  0  0  0  0  0  0
    0.3865    4.1775    2.4555 H   0  0  0  1  0  0  0  0  0  0  0  0
    0.2641    3.9002    4.4735 C   0  0  0  1  0  0  0  0  0  0  0  0
    1.7841   -0.1757    2.7110 C   0  0  0  1  0  0  0  0  0  0  0  0
    1.1653    5.0753    4.7176 C   0  0  0  1  0  0  0  0  0  0  0  0
   -0.2064    3.2090    5.3571 O   0  0  0  1  0  0  0  0  0  0  0  0
    1.4466    1.8408    2.2452 H   0  0  0  1  0  0  0  0  0  0  0  0
    1.3755   -0.7964    3.4809 H   0  0  0  1  0  0  0  0  0  0  0  0
    2.7971    0.0707    2.9518 H   0  0  0  1  0  0  0  0  0  0  0  0
    1.7559   -0.6995    1.7784 H   0  0  0  1  0  0  0  0  0  0  0  0
    1.1481    5.7218    3.8651 H   0  0  0  1  0  0  0  0  0  0  0  0
    2.1644    4.7300    4.8829 H   0  0  0  1  0  0  0  0  0  0  0  0
    0.8258    5.6120    5.5788 H   0  0  0  1  0  0  0  0  0  0  0  0
   -1.6498    7.5509    0.7233 F   0  0  0  1  0  0  0  0  0  0  0  0
   -2.2546    6.3525    0.8327 C   0  0  0  1  0  0  0  0  0  0  0  0
   -1.5350    5.1824    1.0186 C   0  0  0  1  0  0  0  0  0  0  0  0
   -2.1962    3.9730    1.1204 C   0  0  0  1  0  0  0  0  0  0  0  0
   -3.5795    3.9308    1.0419 C   0  0  0  1  0  0  0  0  0  0  0  0
   -4.2972    5.0974    0.8565 C   0  0  0  1  0  0  0  0  0  0  0  0
   -3.6339    6.3103    0.7545 C   0  0  0  1  0  0  0  0  0  0  0  0
   -1.3634    2.7282    1.3164 C   0  0  0  1  0  0  0  0  0  0  0  0
   -0.4974    5.2145    1.0815 H   0  0  0  1  0  0  0  0  0  0  0  0
   -4.0774    3.0213    1.1226 H   0  0  0  1  0  0  0  0  0  0  0  0
   -5.3348    5.0652    0.7937 H   0  0  0  1  0  0  0  0  0  0  0  0
   -4.1741    7.1886    0.6190 H   0  0  0  1  0  0  0  0  0  0  0  0
   -1.9465    1.8792    1.0265 H   0  0  0  1  0  0  0  0  0  0  0  0
   -0.4969    2.7964    0.6924 H   0  0  0  1  0  0  0  0  0  0  0  0
  1  4  1  0  0  0  0
  2  4  1  0  0  0  0
  2  5  2  0  0  0  0
  2  6  1  0  0  0  0
  3  4  1  0  0  0  0
  3  7  1  0  0  0  0
  3  8  1  0  0  0  0
  4 26  1  0  0  0  0
  6  9  1  0  0  0  0
  6 12  1  0  0  0  0
  8 10  1  0  0  0  0
  8 11  2  0  0  0  0
  9 13  1  0  0  0  0
  9 14  1  0  0  0  0
  9 15  1  0  0  0  0
 10 16  1  0  0  0  0
 10 17  1  0  0  0  0
 10 18  1  0  0  0  0
 19 20  1  0  0  0  0
 20 21  4  0  0  0  0
 20 25  4  0  0  0  0
 21 22  4  0  0  0  0
 21 27  1  0  0  0  0
 22 23  4  0  0  0  0
 22 26  1  0  0  0  0
 23 24  4  0  0  0  0
 23 28  1  0  0  0  0
 24 25  4  0  0  0  0
 24 29  1  0  0  0  0
 25 30  1  0  0  0  0
 26 31  1  0  0  0  0
 26 32  1  0  0  0  0
M  END
> <BCLConfClusterSize>
1

> <ConfClashScore>
0 

> <ConfOneFourInteractionScore>
-0.948581 

> <ConfScore>
-0.233817 

> <ConfScorePBest>
0.00689397 

> <ConfTolerance>
0.311124 

> <RosettaParamsInstructions>
M  ROOT 3
M  POLY_N_BB 3
M  POLY_CA_BB 4
M  POLY_C_BB 2
M  POLY_O_BB 5
M  POLY_IGNORE 9 10 11 12 13 14 15 16 17 18 
M  POLY_UPPER 6
M  POLY_LOWER 8
M  POLY_CHG 0
M  POLY_PROPERTIES ALPHA_AA L_AA PROTEIN AROMATIC POLYMER 
M  END

$$$$



 32 32  0  0  0  0  0  0  0  0999 V2000
   -0.3584    2.9357   -0.5111 H   0  0  0  1  0  0  0  0  0  0  0  0
    0.1728    1.0345    0.2155 C   0  0  0  1  0  0  0  0  0  0  0  0
   -1.9179    1.6311   -0.8362 N   0  0  0  1  0  0  0  0  0  0  0  0
   -0.8470    2.1372    0.0071 C   0  0  0  1  0  0  0  0  0  0  0  0
    1.2772    1.2796    0.6990 O   0  0  0  1  0  0  0  0  0  0  0  0
   -0.1658   -0.2141   -0.1429 N   0  0  0  1  0  0  0  0  0  0  0  0
   -2.7132    1.2471   -0.4114 H   0  0  0  1  0  0  0  0  0  0  0  0
   -1.8549    1.6717   -2.1833 C   0  0  0  1  0  0  0  0  0  0  0  0
    0.7532   -1.3354   -0.0161 C   0  0  0  1  0  0  0  0  0  0  0  0
   -3.0675    1.2101   -2.9680 C   0  0  0  1  0  0  0  0  0  0  0  0
   -0.8444    2.0710   -2.7605 O   0  0  0  1  0  0  0  0  0  0  0  0
   -1.0629   -0.3761   -0.5024 H   0  0  0  1  0  0  0  0  0  0  0  0
    1.7500   -1.0053   -0.2218 H   0  0  0  1  0  0  0  0  0  0  0  0
    0.4802   -2.1004   -0.7126 H   0  0  0  1  0  0  0  0  0  0  0  0
    0.7050   -1.7249    0.9793 H   0  0  0  1  0  0  0  0  0  0  0  0
   -3.8985    1.8475   -2.7489 H   0  0  0  1  0  0  0  0  0  0  0  0
   -3.3078    0.2042   -2.6936 H   0  0  0  1  0  0  0  0  0  0  0  0
   -2.8518    1.2528   -4.0151 H   0  0  0  1  0  0  0  0  0  0  0  0
   -1.6228    7.5417    0.7261 F   0  0  0  1  0  0  0  0  0  0  0  0
   -2.2608    6.3603    0.8314 C   0  0  0  1  0  0  0  0  0  0  0  0
   -1.5345    5.1943    1.0172 C   0  0  0  1  0  0  0  0  0  0  0  0
   -2.1888    3.9813    1.1199 C   0  0  0  1  0  0  0  0  0  0  0  0
   -3.5719    3.9313    1.0424 C   0  0  0  1  0  0  0  0  0  0  0  0
   -4.2963    5.0937    0.8570 C   0  0  0  1  0  0  0  0  0  0  0  0
   -3.6399    6.3103    0.7541 C   0  0  0  1  0  0  0  0  0  0  0  0
   -1.3975    2.7098    1.3166 C   0  0  0  1  0  0  0  0  0  0  0  0
   -0.4971    5.2324    1.0794 H   0  0  0  1  0  0  0  0  0  0  0  0
   -4.0646    3.0190    1.1236 H   0  0  0  1  0  0  0  0  0  0  0  0
   -5.3338    5.0556    0.7949 H   0  0  0  1  0  0  0  0  0  0  0  0
   -4.1852    7.1855    0.6187 H   0  0  0  1  0  0  0  0  0  0  0  0
   -0.5758    2.9177    1.9695 H   0  0  0  1  0  0  0  0  0  0  0  0
   -2.0352    1.9780    1.7668 H   0  0  0  1  0  0  0  0  0  0  0  0
  1  4  1  0  0  0  0
  2  4  1  0  0  0  0
  2  5  2  0  0  0  0
  2  6  1  0  0  0  0
  3  4  1  0  0  0  0
  3  7  1  0  0  0  0
  3  8  1  0  0  0  0
  4 26  1  0  0  0  0
  6  9  1  0  0  0  0
  6 12  1  0  0  0  0
  8 10  1  0  0  0  0
  8 11  2  0  0  0  0
  9 13  1  0  0  0  0
  9 14  1  0  0  0  0
  9 15  1  0  0  0  0
 10 16  1  0  0  0  0
 10 17  1  0  0  0  0
 10 18  1  0  0  0  0
 19 20  1  0  0  0  0
 20 21  4  0  0  0  0
 20 25  4  0  0  0  0
 21 22  4  0  0  0  0
 21 27  1  0  0  0  0
 22 23  4  0  0  0  0
 22 26  1  0  0  0  0
 23 24  4  0  0  0  0
 23 28  1  0  0  0  0
 24 25  4  0  0  0  0
 24 29  1  0  0  0  0
 25 30  1  0  0  0  0
 26 31  1  0  0  0  0
 26 32  1  0  0  0  0
M  END
> <BCLConfClusterSize>
1

> <ConfClashScore>
0 

> <ConfOneFourInteractionScore>
-0.960318 

> <ConfScore>
-0.230412 

> <ConfScorePBest>
0.00686549 

> <ConfTolerance>
0.215742 

> <RosettaParamsInstructions>
M  ROOT 3
M  POLY_N_BB 3
M  POLY_CA_BB 4
M  POLY_C_BB 2
M  POLY_O_BB 5
M  POLY_IGNORE 9 10 11 12 13 14 15 16 17 18 
M  POLY_UPPER 6
M  POLY_LOWER 8
M  POLY_CHG 0
M  POLY_PROPERTIES ALPHA_AA L_AA PROTEIN AROMATIC POLYMER 
M  END

$$$$



 32 32  0  0  0  0  0  0  0  0999 V2000
   -2.3017    2.2488    3.1618 H   0  0  0  1  0  0  0  0  0  0  0  0
   -0.7170    0.8854    2.9062 C   0  0  0  1  0  0  0  0  0  0  0  0
   -0.5598    3.2773    3.5371 N   0  0  0  1  0  0  0  0  0  0  0  0
   -1.3042    2.2849    2.7762 C   0  0  0  1  0  0  0  0  0  0  0  0
   -1.1876   -0.0635    2.2844 O   0  0  0  1  0  0  0  0  0  0  0  0
    0.3327    0.7680    3.7347 N   0  0  0  1  0  0  0  0  0  0  0  0
    0.2260    3.6790    3.1109 H   0  0  0  1  0  0  0  0  0  0  0  0
   -0.8695    3.6853    4.7832 C   0  0  0  1  0  0  0  0  0  0  0  0
    1.0857   -0.4573    3.9570 C   0  0  0  1  0  0  0  0  0  0  0  0
    0.1198    4.6774    5.3631 C   0  0  0  1  0  0  0  0  0  0  0  0
   -1.8516    3.3098    5.4178 O   0  0  0  1  0  0  0  0  0  0  0  0
    0.6131    1.5677    4.2269 H   0  0  0  1  0  0  0  0  0  0  0  0
    0.8614   -1.1600    3.1819 H   0  0  0  1  0  0  0  0  0  0  0  0
    0.8162   -0.8742    4.9049 H   0  0  0  1  0  0  0  0  0  0  0  0
    2.1331   -0.2387    3.9478 H   0  0  0  1  0  0  0  0  0  0  0  0
    1.0293    4.1713    5.6113 H   0  0  0  1  0  0  0  0  0  0  0  0
   -0.2943    5.1195    6.2451 H   0  0  0  1  0  0  0  0  0  0  0  0
    0.3225    5.4415    4.6420 H   0  0  0  1  0  0  0  0  0  0  0  0
   -1.6228    7.5417    0.7261 F   0  0  0  1  0  0  0  0  0  0  0  0
   -2.2608    6.3603    0.8314 C   0  0  0  1  0  0  0  0  0  0  0  0
   -1.5345    5.1943    1.0172 C   0  0  0  1  0  0  0  0  0  0  0  0
   -2.1888    3.9813    1.1199 C   0  0  0  1  0  0  0  0  0  0  0  0
   -3.5719    3.9313    1.0424 C   0  0  0  1  0  0  0  0  0  0  0  0
   -4.2963    5.0937    0.8570 C   0  0  0  1  0  0  0  0  0  0  0  0
   -3.6399    6.3103    0.7541 C   0  0  0  1  0  0  0  0  0  0  0  0
   -1.3975    2.7098    1.3166 C   0  0  0  1  0  0  0  0  0  0  0  0
   -0.4971    5.2324    1.0794 H   0  0  0  1  0  0  0  0  0  0  0  0
   -4.0646    3.0190    1.1236 H   0  0  0  1  0  0  0  0  0  0  0  0
   -5.3338    5.0556    0.7949 H   0  0  0  1  0  0  0  0  0  0  0  0
   -4.1852    7.1855    0.6187 H   0  0  0  1  0  0  0  0  0  0  0  0
   -1.8702    1.9255    0.7631 H   0  0  0  1  0  0  0  0  0  0  0  0
   -0.4069    2.8639    0.9427 H   0  0  0  1  0  0  0  0  0  0  0  0
  1  4  1  0  0  0  0
  2  4  1  0  0  0  0
  2  5  2  0  0  0  0
  2  6  1  0  0  0  0
  3  4  1  0  0  0  0
  3  7  1  0  0  0  0
  3  8  1  0  0  0  0
  4 26  1  0  0  0  0
  6  9  1  0  0  0  0
  6 12  1  0  0  0  0
  8 10  1  0  0  0  0
  8 11  2  0  0  0  0
  9 13  1  0  0  0  0
  9 14  1  0  0  0  0
  9 15  1  0  0  0  0
 10 16  1  0  0  0  0
 10 17  1  0  0  0  0
 10 18  1  0  0  0  0
 19 20  1  0  0  0  0
 20 21  4  0  0  0  0
 20 25  4  0  0  0  0
 21 22  4  0  0  0  0
 21 27  1  0  0  0  0
 22 23  4  0  0  0  0
 22 26  1  0  0  0  0
 23 24  4  0  0  0  0
 23 28  1  0  0  0  0
 24 25  4  0  0  0  0
 24 29  1  0  0  0  0
 25 30  1  0  0  0  0
 26 31  1  0  0  0  0
 26 32  1  0  0  0  0
M  END
> <BCLConfClusterSize>
1

> <ConfClashScore>
0 

> <ConfOneFourInteractionScore>
-0.960318 

> <ConfScore>
-0.230069 

> <ConfScorePBest>
0.00683701 

> <ConfTolerance>
0.179483 

> <RosettaParamsInstructions>
M  ROOT 3
M  POLY_N_BB 3
M  POLY_CA_BB 4
M  POLY_C_BB 2
M  POLY_O_BB 5
M  POLY_IGNORE 9 10 11 12 13 14 15 16 17 18 
M  POLY_UPPER 6
M  POLY_LOWER 8
M  POLY_CHG 0
M  POLY_PROPERTIES ALPHA_AA L_AA PROTEIN AROMATIC POLYMER 
M  END

$$$$



 32 32  0  0  0  0  0  0  0  0999 V2000
   -2.4868    1.9722    2.9989 H   0  0  0  1  0  0  0  0  0  0  0  0
   -0.7668    0.7805    2.8060 C   0  0  0  1  0  0  0  0  0  0  0  0
   -0.8961    3.1018    3.6585 N   0  0  0  1  0  0  0  0  0  0  0  0
   -1.4620    2.1271    2.7328 C   0  0  0  1  0  0  0  0  0  0  0  0
   -1.3354   -0.1893    2.3061 O   0  0  0  1  0  0  0  0  0  0  0  0
    0.4242    0.7174    3.4082 N   0  0  0  1  0  0  0  0  0  0  0  0
   -0.7216    4.0117    3.3390 H   0  0  0  1  0  0  0  0  0  0  0  0
   -0.6078    2.7979    4.9250 C   0  0  0  1  0  0  0  0  0  0  0  0
    1.0850   -0.5667    3.5880 C   0  0  0  1  0  0  0  0  0  0  0  0
   -0.0039    3.9176    5.7500 C   0  0  0  1  0  0  0  0  0  0  0  0
   -0.8117    1.6858    5.4101 O   0  0  0  1  0  0  0  0  0  0  0  0
    0.8538    1.5375    3.7294 H   0  0  0  1  0  0  0  0  0  0  0  0
    1.6797   -0.5410    4.4771 H   0  0  0  1  0  0  0  0  0  0  0  0
    1.7129   -0.7656    2.7448 H   0  0  0  1  0  0  0  0  0  0  0  0
    0.3481   -1.3377    3.6742 H   0  0  0  1  0  0  0  0  0  0  0  0
    0.8211    4.3465    5.2206 H   0  0  0  1  0  0  0  0  0  0  0  0
    0.3375    3.5267    6.6857 H   0  0  0  1  0  0  0  0  0  0  0  0
   -0.7443    4.6699    5.9260 H   0  0  0  1  0  0  0  0  0  0  0  0
   -1.6578    7.5643    0.7212 F   0  0  0  1  0  0  0  0  0  0  0  0
   -2.2544    6.3619    0.8315 C   0  0  0  1  0  0  0  0  0  0  0  0
   -1.5268    5.1967    1.0174 C   0  0  0  1  0  0  0  0  0  0  0  0
   -2.1798    3.9830    1.1202 C   0  0  0  1  0  0  0  0  0  0  0  0
   -3.5628    3.9315    1.0429 C   0  0  0  1  0  0  0  0  0  0  0  0
   -4.2885    5.0931    0.8576 C   0  0  0  1  0  0  0  0  0  0  0  0
   -3.6334    6.3104    0.7545 C   0  0  0  1  0  0  0  0  0  0  0  0
   -1.4405    2.6806    1.3174 C   0  0  0  1  0  0  0  0  0  0  0  0
   -0.4894    5.2359    1.0794 H   0  0  0  1  0  0  0  0  0  0  0  0
   -4.0545    3.0187    1.1243 H   0  0  0  1  0  0  0  0  0  0  0  0
   -5.3259    5.0539    0.7956 H   0  0  0  1  0  0  0  0  0  0  0  0
   -4.1796    7.1850    0.6191 H   0  0  0  1  0  0  0  0  0  0  0  0
   -1.8802    1.9503    0.6706 H   0  0  0  1  0  0  0  0  0  0  0  0
   -0.4190    2.8355    1.0390 H   0  0  0  1  0  0  0  0  0  0  0  0
  1  4  1  0  0  0  0
  2  4  1  0  0  0  0
  2  5  2  0  0  0  0
  2  6  1  0  0  0  0
  3  4  1  0  0  0  0
  3  7  1  0  0  0  0
  3  8  1  0  0  0  0
  4 26  1  0  0  0  0
  6  9  1  0  0  0  0
  6 12  1  0  0  0  0
  8 10  1  0  0  0  0
  8 11  2  0  0  0  0
  9 13  1  0  0  0  0
  9 14  1  0  0  0  0
  9 15  1  0  0  0  0
 10 16  1  0  0  0  0
 10 17  1  0  0  0  0
 10 18  1  0  0  0  0
 19 20  1  0  0  0  0
 20 21  4  0  0  0  0
 20 25  4  0  0  0  0
 21 22  4  0  0  0  0
 21 27  1  0  0  0  0
 22 23  4  0  0  0  0
 22 26  1  0  0  0  0
 23 24  4  0  0  0  0
 23 28  1  0  0  0  0
 24 25  4  0  0  0  0
 24 29  1  0  0  0  0
 25 30  1  0  0  0  0
 26 31  1  0  0  0  0
 26 32  1  0  0  0  0
M  END
> <BCLConfClusterSize>
1

> <ConfClashScore>
0 

> <ConfOneFourInteractionScore>
-0.960318 

> <ConfScore>
-0.227579 

> <ConfScorePBest>
0.00680853 

> <ConfTolerance>
0.351276 

> <RosettaParamsInstructions>
M  ROOT 3
M  POLY_N_BB 3
M  POLY_CA_BB 4
M  POLY_C_BB 2
M  POLY_O_BB 5
M  POLY_IGNORE 9 10 11 12 13 14 15 16 17 18 
M  POLY_UPPER 6
M  POLY_LOWER 8
M  POLY_CHG 0
M  POLY_PROPERTIES ALPHA_AA L_AA PROTEIN AROMATIC POLYMER 
M  END

$$$$



 32 32  0  0  0  0  0  0  0  0999 V2000
   -1.0074    3.1357    3.3682 H   0  0  0  1  0  0  0  0  0  0  0  0
   -2.7389    1.9113    3.2833 C   0  0  0  1  0  0  0  0  0  0  0  0
   -0.4825    1.1658    2.9925 N   0  0  0  1  0  0  0  0  0  0  0  0
   -1.3555    2.3110    2.7820 C   0  0  0  1  0  0  0  0  0  0  0  0
   -3.5745    2.7589    3.5950 O   0  0  0  1  0  0  0  0  0  0  0  0
   -2.9734    0.5916    3.3581 N   0  0  0  1  0  0  0  0  0  0  0  0
   -0.1177    0.6993    2.2117 H   0  0  0  1  0  0  0  0  0  0  0  0
   -0.1610    0.7283    4.2133 C   0  0  0  1  0  0  0  0  0  0  0  0
   -4.2207    0.0519    3.8784 C   0  0  0  1  0  0  0  0  0  0  0  0
    0.7219   -0.5036    4.2602 C   0  0  0  1  0  0  0  0  0  0  0  0
   -0.5472    1.2767    5.2447 O   0  0  0  1  0  0  0  0  0  0  0  0
   -2.2805   -0.0299    3.0516 H   0  0  0  1  0  0  0  0  0  0  0  0
   -5.0334    0.6823    3.5831 H   0  0  0  1  0  0  0  0  0  0  0  0
   -4.1726    0.0093    4.9465 H   0  0  0  1  0  0  0  0  0  0  0  0
   -4.3733   -0.9326    3.4882 H   0  0  0  1  0  0  0  0  0  0  0  0
    0.6012   -0.9938    5.2036 H   0  0  0  1  0  0  0  0  0  0  0  0
    1.7446   -0.2140    4.1374 H   0  0  0  1  0  0  0  0  0  0  0  0
    0.4430   -1.1722    3.4728 H   0  0  0  1  0  0  0  0  0  0  0  0
   -1.6190    7.5350    0.7271 F   0  0  0  1  0  0  0  0  0  0  0  0
   -2.2609    6.3557    0.8319 C   0  0  0  1  0  0  0  0  0  0  0  0
   -1.5384    5.1873    1.0178 C   0  0  0  1  0  0  0  0  0  0  0  0
   -2.1967    3.9764    1.1200 C   0  0  0  1  0  0  0  0  0  0  0  0
   -3.5799    3.9309    1.0419 C   0  0  0  1  0  0  0  0  0  0  0  0
   -4.3005    5.0957    0.8565 C   0  0  0  1  0  0  0  0  0  0  0  0
   -3.6401    6.3101    0.7541 C   0  0  0  1  0  0  0  0  0  0  0  0
   -1.3608    2.7337    1.3160 C   0  0  0  1  0  0  0  0  0  0  0  0
   -0.5009    5.2220    1.0804 H   0  0  0  1  0  0  0  0  0  0  0  0
   -4.0756    3.0202    1.1228 H   0  0  0  1  0  0  0  0  0  0  0  0
   -5.3380    5.0610    0.7940 H   0  0  0  1  0  0  0  0  0  0  0  0
   -4.1824    7.1871    0.6186 H   0  0  0  1  0  0  0  0  0  0  0  0
   -1.7672    1.9406    0.7237 H   0  0  0  1  0  0  0  0  0  0  0  0
   -0.3568    2.9335    1.0048 H   0  0  0  1  0  0  0  0  0  0  0  0
  1  4  1  0  0  0  0
  2  4  1  0  0  0  0
  2  5  2  0  0  0  0
  2  6  1  0  0  0  0
  3  4  1  0  0  0  0
  3  7  1  0  0  0  0
  3  8  1  0  0  0  0
  4 26  1  0  0  0  0
  6  9  1  0  0  0  0
  6 12  1  0  0  0  0
  8 10  1  0  0  0  0
  8 11  2  0  0  0  0
  9 13  1  0  0  0  0
  9 14  1  0  0  0  0
  9 15  1  0  0  0  0
 10 16  1  0  0  0  0
 10 17  1  0  0  0  0
 10 18  1  0  0  0  0
 19 20  1  0  0  0  0
 20 21  4  0  0  0  0
 20 25  4  0  0  0  0
 21 22  4  0  0  0  0
 21 27  1  0  0  0  0
 22 23  4  0  0  0  0
 22 26  1  0  0  0  0
 23 24  4  0  0  0  0
 23 28  1  0  0  0  0
 24 25  4  0  0  0  0
 24 29  1  0  0  0  0
 25 30  1  0  0  0  0
 26 31  1  0  0  0  0
 26 32  1  0  0  0  0
M  END
> <BCLConfClusterSize>
1

> <ConfClashScore>
0 

> <ConfOneFourInteractionScore>
-0.94165 

> <ConfScore>
-0.221814 

> <ConfScorePBest>
0.00678005 

> <ConfTolerance>
0.261408 

> <RosettaParamsInstructions>
M  ROOT 3
M  POLY_N_BB 3
M  POLY_CA_BB 4
M  POLY_C_BB 2
M  POLY_O_BB 5
M  POLY_IGNORE 9 10 11 12 13 14 15 16 17 18 
M  POLY_UPPER 6
M  POLY_LOWER 8
M  POLY_CHG 0
M  POLY_PROPERTIES ALPHA_AA L_AA PROTEIN AROMATIC POLYMER 
M  END

$$$$



 32 32  0  0  0  0  0  0  0  0999 V2000
   -2.5007    1.8672    2.9658 H   0  0  0  1  0  0  0  0  0  0  0  0
   -0.5120    1.1299    3.0490 C   0  0  0  1  0  0  0  0  0  0  0  0
   -1.2723    3.3557    3.7278 N   0  0  0  1  0  0  0  0  0  0  0  0
   -1.5132    2.2506    2.8151 C   0  0  0  1  0  0  0  0  0  0  0  0
   -0.8136   -0.0465    2.8539 O   0  0  0  1  0  0  0  0  0  0  0  0
    0.6962    1.5103    3.4739 N   0  0  0  1  0  0  0  0  0  0  0  0
   -0.5839    4.0151    3.5009 H   0  0  0  1  0  0  0  0  0  0  0  0
   -1.9598    3.5044    4.8704 C   0  0  0  1  0  0  0  0  0  0  0  0
    1.8147    0.5839    3.5674 C   0  0  0  1  0  0  0  0  0  0  0  0
   -1.5276    4.6541    5.7521 C   0  0  0  1  0  0  0  0  0  0  0  0
   -2.8840    2.7639    5.1960 O   0  0  0  1  0  0  0  0  0  0  0  0
    0.8341    2.4457    3.7316 H   0  0  0  1  0  0  0  0  0  0  0  0
    1.6956   -0.1941    2.8425 H   0  0  0  1  0  0  0  0  0  0  0  0
    1.8423    0.1563    4.5479 H   0  0  0  1  0  0  0  0  0  0  0  0
    2.7284    1.1084    3.3806 H   0  0  0  1  0  0  0  0  0  0  0  0
   -1.7840    4.4405    6.7688 H   0  0  0  1  0  0  0  0  0  0  0  0
   -2.0242    5.5489    5.4398 H   0  0  0  1  0  0  0  0  0  0  0  0
   -0.4689    4.7864    5.6718 H   0  0  0  1  0  0  0  0  0  0  0  0
   -1.5919    7.5240    0.7358 F   0  0  0  1  0  0  0  0  0  0  0  0
   -2.2670    6.3624    0.8299 C   0  0  0  1  0  0  0  0  0  0  0  0
   -1.5377    5.1960    1.0011 C   0  0  0  1  0  0  0  0  0  0  0  0
   -2.1895    3.9811    1.0971 C   0  0  0  1  0  0  0  0  0  0  0  0
   -3.5729    3.9295    1.0276 C   0  0  0  1  0  0  0  0  0  0  0  0
   -4.3003    5.0923    0.8569 C   0  0  0  1  0  0  0  0  0  0  0  0
   -3.6464    6.3108    0.7606 C   0  0  0  1  0  0  0  0  0  0  0  0
   -1.3920    2.7285    1.3740 C   0  0  0  1  0  0  0  0  0  0  0  0
   -0.5000    5.2352    1.0573 H   0  0  0  1  0  0  0  0  0  0  0  0
   -4.0637    3.0157    1.1038 H   0  0  0  1  0  0  0  0  0  0  0  0
   -5.3380    5.0531    0.8007 H   0  0  0  1  0  0  0  0  0  0  0  0
   -4.1938    7.1863    0.6363 H   0  0  0  1  0  0  0  0  0  0  0  0
   -1.7424    1.9517    0.7269 H   0  0  0  1  0  0  0  0  0  0  0  0
   -0.3614    2.9282    1.1669 H   0  0  0  1  0  0  0  0  0  0  0  0
  1  4  1  0  0  0  0
  2  4  1  0  0  0  0
  2  5  2  0  0  0  0
  2  6  1  0  0  0  0
  3  4  1  0  0  0  0
  3  7  1  0  0  0  0
  3  8  1  0  0  0  0
  4 26  1  0  0  0  0
  6  9  1  0  0  0  0
  6 12  1  0  0  0  0
  8 10  1  0  0  0  0
  8 11  2  0  0  0  0
  9 13  1  0  0  0  0
  9 14  1  0  0  0  0
  9 15  1  0  0  0  0
 10 16  1  0  0  0  0
 10 17  1  0  0  0  0
 10 18  1  0  0  0  0
 19 20  1  0  0  0  0
 20 21  4  0  0  0  0
 20 25  4  0  0  0  0
 21 22  4  0  0  0  0
 21 27  1  0  0  0  0
 22 23  4  0  0  0  0
 22 26  1  0  0  0  0
 23 24  4  0  0  0  0
 23 28  1  0  0  0  0
 24 25  4  0  0  0  0
 24 29  1  0  0  0  0
 25 30  1  0  0  0  0
 26 31  1  0  0  0  0
 26 32  1  0  0  0  0
M  END
> <BCLConfClusterSize>
1

> <ConfClashScore>
0 

> <ConfOneFourInteractionScore>
-0.94165 

> <ConfScore>
-0.220864 

> <ConfScorePBest>
0.00675157 

> <ConfTolerance>
0.325607 

> <RosettaParamsInstructions>
M  ROOT 3
M  POLY_N_BB 3
M  POLY_CA_BB 4
M  POLY_C_BB 2
M  POLY_O_BB 5
M  POLY_IGNORE 9 10 11 12 13 14 15 16 17 18 
M  POLY_UPPER 6
M  POLY_LOWER 8
M  POLY_CHG 0
M  POLY_PROPERTIES ALPHA_AA L_AA PROTEIN AROMATIC POLYMER 
M  END

$$$$



 32 32  0  0  0  0  0  0  0  0999 V2000
   -2.0880    2.3821    3.2912 H   0  0  0  1  0  0  0  0  0  0  0  0
   -0.5596    0.9812    2.9592 C   0  0  0  1  0  0  0  0  0  0  0  0
   -0.3049    3.3874    3.4016 N   0  0  0  1  0  0  0  0  0  0  0  0
   -1.1477    2.3764    2.7807 C   0  0  0  1  0  0  0  0  0  0  0  0
    0.6459    0.7814    2.8160 O   0  0  0  1  0  0  0  0  0  0  0  0
   -1.3950   -0.0196    3.2765 N   0  0  0  1  0  0  0  0  0  0  0  0
    0.2535    3.9542    2.8294 H   0  0  0  1  0  0  0  0  0  0  0  0
   -0.2659    3.5698    4.7246 C   0  0  0  1  0  0  0  0  0  0  0  0
   -0.9325   -1.3852    3.4747 C   0  0  0  1  0  0  0  0  0  0  0  0
    0.5900    4.7355    5.2075 C   0  0  0  1  0  0  0  0  0  0  0  0
   -0.8749    2.8533    5.5178 O   0  0  0  1  0  0  0  0  0  0  0  0
   -2.3500    0.1757    3.3782 H   0  0  0  1  0  0  0  0  0  0  0  0
   -0.1985   -1.6247    2.7339 H   0  0  0  1  0  0  0  0  0  0  0  0
   -1.7599   -2.0580    3.3873 H   0  0  0  1  0  0  0  0  0  0  0  0
   -0.4990   -1.4768    4.4487 H   0  0  0  1  0  0  0  0  0  0  0  0
    1.6042    4.5846    4.9019 H   0  0  0  1  0  0  0  0  0  0  0  0
    0.5442    4.7930    6.2750 H   0  0  0  1  0  0  0  0  0  0  0  0
    0.2221    5.6470    4.7846 H   0  0  0  1  0  0  0  0  0  0  0  0
   -1.6578    7.5643    0.7212 F   0  0  0  1  0  0  0  0  0  0  0  0
   -2.2544    6.3619    0.8315 C   0  0  0  1  0  0  0  0  0  0  0  0
   -1.5268    5.1967    1.0174 C   0  0  0  1  0  0  0  0  0  0  0  0
   -2.1798    3.9830    1.1202 C   0  0  0  1  0  0  0  0  0  0  0  0
   -3.5628    3.9315    1.0429 C   0  0  0  1  0  0  0  0  0  0  0  0
   -4.2885    5.0931    0.8576 C   0  0  0  1  0  0  0  0  0  0  0  0
   -3.6334    6.3104    0.7545 C   0  0  0  1  0  0  0  0  0  0  0  0
   -1.4405    2.6806    1.3174 C   0  0  0  1  0  0  0  0  0  0  0  0
   -0.4894    5.2359    1.0794 H   0  0  0  1  0  0  0  0  0  0  0  0
   -4.0545    3.0187    1.1243 H   0  0  0  1  0  0  0  0  0  0  0  0
   -5.3259    5.0539    0.7956 H   0  0  0  1  0  0  0  0  0  0  0  0
   -4.1796    7.1850    0.6191 H   0  0  0  1  0  0  0  0  0  0  0  0
   -2.0361    1.8870    0.9171 H   0  0  0  1  0  0  0  0  0  0  0  0
   -0.5121    2.7325    0.7879 H   0  0  0  1  0  0  0  0  0  0  0  0
  1  4  1  0  0  0  0
  2  4  1  0  0  0  0
  2  5  2  0  0  0  0
  2  6  1  0  0  0  0
  3  4  1  0  0  0  0
  3  7  1  0  0  0  0
  3  8  1  0  0  0  0
  4 26  1  0  0  0  0
  6  9  1  0  0  0  0
  6 12  1  0  0  0  0
  8 10  1  0  0  0  0
  8 11  2  0  0  0  0
  9 13  1  0  0  0  0
  9 14  1  0  0  0  0
  9 15  1  0  0  0  0
 10 16  1  0  0  0  0
 10 17  1  0  0  0  0
 10 18  1  0  0  0  0
 19 20  1  0  0  0  0
 20 21  4  0  0  0  0
 20 25  4  0  0  0  0
 21 22  4  0  0  0  0
 21 27  1  0  0  0  0
 22 23  4  0  0  0  0
 22 26  1  0  0  0  0
 23 24  4  0  0  0  0
 23 28  1  0  0  0  0
 24 25  4  0  0  0  0
 24 29  1  0  0  0  0
 25 30  1  0  0  0  0
 26 31  1  0  0  0  0
 26 32  1  0  0  0  0
M  END
> <BCLConfClusterSize>
1

> <ConfClashScore>
0 

> <ConfOneFourInteractionScore>
-0.985807 

> <ConfScore>
-0.219951 

> <ConfScorePBest>
0.00672309 

> <ConfTolerance>
0.21794 

> <RosettaParamsInstructions>
M  ROOT 3
M  POLY_N_BB 3
M  POLY_CA_BB 4
M  POLY_C_BB 2
M  POLY_O_BB 5
M  POLY_IGNORE 9 10 11 12 13 14 15 16 17 18 
M  POLY_UPPER 6
M  POLY_LOWER 8
M  POLY_CHG 0
M  POLY_PROPERTIES ALPHA_AA L_AA PROTEIN AROMATIC POLYMER 
M  END

$$$$



 32 32  0  0  0  0  0  0  0  0999 V2000
   -0.8625    2.4637   -0.7226 H   0  0  0  1  0  0  0  0  0  0  0  0
   -0.3916    0.6771    0.3218 C   0  0  0  1  0  0  0  0  0  0  0  0
   -2.6227    1.4247   -0.3577 N   0  0  0  1  0  0  0  0  0  0  0  0
   -1.2981    1.8673    0.0516 C   0  0  0  1  0  0  0  0  0  0  0  0
    0.8150    0.8238    0.5123 O   0  0  0  1  0  0  0  0  0  0  0  0
   -0.9905   -0.5171    0.3367 N   0  0  0  1  0  0  0  0  0  0  0  0
   -3.2414    1.1362    0.3455 H   0  0  0  1  0  0  0  0  0  0  0  0
   -3.0726    1.3807   -1.6598 C   0  0  0  1  0  0  0  0  0  0  0  0
   -0.2998   -1.7944    0.4335 C   0  0  0  1  0  0  0  0  0  0  0  0
   -4.5086    0.9853   -1.8448 C   0  0  0  1  0  0  0  0  0  0  0  0
   -2.3189    1.6531   -2.5751 O   0  0  0  1  0  0  0  0  0  0  0  0
   -1.9686   -0.5342    0.2780 H   0  0  0  1  0  0  0  0  0  0  0  0
    0.2597   -1.8296    1.3448 H   0  0  0  1  0  0  0  0  0  0  0  0
    0.3652   -1.9039   -0.3975 H   0  0  0  1  0  0  0  0  0  0  0  0
   -1.0167   -2.5887    0.4244 H   0  0  0  1  0  0  0  0  0  0  0  0
   -4.6462   -0.0240   -1.5174 H   0  0  0  1  0  0  0  0  0  0  0  0
   -4.7691    1.0630   -2.8797 H   0  0  0  1  0  0  0  0  0  0  0  0
   -5.1342    1.6352   -1.2693 H   0  0  0  1  0  0  0  0  0  0  0  0
   -1.6228    7.5417    0.7261 F   0  0  0  1  0  0  0  0  0  0  0  0
   -2.2608    6.3603    0.8314 C   0  0  0  1  0  0  0  0  0  0  0  0
   -1.5345    5.1943    1.0172 C   0  0  0  1  0  0  0  0  0  0  0  0
   -2.1888    3.9813    1.1199 C   0  0  0  1  0  0  0  0  0  0  0  0
   -3.5719    3.9313    1.0424 C   0  0  0  1  0  0  0  0  0  0  0  0
   -4.2963    5.0937    0.8570 C   0  0  0  1  0  0  0  0  0  0  0  0
   -3.6399    6.3103    0.7541 C   0  0  0  1  0  0  0  0  0  0  0  0
   -1.3975    2.7098    1.3166 C   0  0  0  1  0  0  0  0  0  0  0  0
   -0.4971    5.2324    1.0794 H   0  0  0  1  0  0  0  0  0  0  0  0
   -4.0646    3.0190    1.1236 H   0  0  0  1  0  0  0  0  0  0  0  0
   -5.3338    5.0556    0.7949 H   0  0  0  1  0  0  0  0  0  0  0  0
   -4.1852    7.1855    0.6187 H   0  0  0  1  0  0  0  0  0  0  0  0
   -0.4084    2.9695    1.6314 H   0  0  0  1  0  0  0  0  0  0  0  0
   -1.8731    2.1270    2.0775 H   0  0  0  1  0  0  0  0  0  0  0  0
  1  4  1  0  0  0  0
  2  4  1  0  0  0  0
  2  5  2  0  0  0  0
  2  6  1  0  0  0  0
  3  4  1  0  0  0  0
  3  7  1  0  0  0  0
  3  8  1  0  0  0  0
  4 26  1  0  0  0  0
  6  9  1  0  0  0  0
  6 12  1  0  0  0  0
  8 10  1  0  0  0  0
  8 11  2  0  0  0  0
  9 13  1  0  0  0  0
  9 14  1  0  0  0  0
  9 15  1  0  0  0  0
 10 16  1  0  0  0  0
 10 17  1  0  0  0  0
 10 18  1  0  0  0  0
 19 20  1  0  0  0  0
 20 21  4  0  0  0  0
 20 25  4  0  0  0  0
 21 22  4  0  0  0  0
 21 27  1  0  0  0  0
 22 23  4  0  0  0  0
 22 26  1  0  0  0  0
 23 24  4  0  0  0  0
 23 28  1  0  0  0  0
 24 25  4  0  0  0  0
 24 29  1  0  0  0  0
 25 30  1  0  0  0  0
 26 31  1  0  0  0  0
 26 32  1  0  0  0  0
M  END
> <BCLConfClusterSize>
1

> <ConfClashScore>
0 

> <ConfOneFourInteractionScore>
-0.937775 

> <ConfScore>
-0.218552 

> <ConfScorePBest>
0.0066946 

> <ConfTolerance>
0.274273 

> <RosettaParamsInstructions>
M  ROOT 3
M  POLY_N_BB 3
M  POLY_CA_BB 4
M  POLY_C_BB 2
M  POLY_O_BB 5
M  POLY_IGNORE 9 10 11 12 13 14 15 16 17 18 
M  POLY_UPPER 6
M  POLY_LOWER 8
M  POLY_CHG 0
M  POLY_PROPERTIES ALPHA_AA L_AA PROTEIN AROMATIC POLYMER 
M  END

$$$$



 32 32  0  0  0  0  0  0  0  0999 V2000
   -2.8999    1.9334    2.5938 H   0  0  0  1  0  0  0  0  0  0  0  0
   -1.2828    0.5731    2.5879 C   0  0  0  1  0  0  0  0  0  0  0  0
   -1.4095    2.7677    3.7536 N   0  0  0  1  0  0  0  0  0  0  0  0
   -1.8316    1.9931    2.5977 C   0  0  0  1  0  0  0  0  0  0  0  0
   -1.8160   -0.3581    2.0146 O   0  0  0  1  0  0  0  0  0  0  0  0
   -0.1403    0.3811    3.2647 N   0  0  0  1  0  0  0  0  0  0  0  0
   -0.7528    3.4873    3.6467 H   0  0  0  1  0  0  0  0  0  0  0  0
   -1.9173    2.4995    4.9662 C   0  0  0  1  0  0  0  0  0  0  0  0
    0.5959   -0.8641    3.1162 C   0  0  0  1  0  0  0  0  0  0  0  0
   -1.3024    3.3239    6.0804 C   0  0  0  1  0  0  0  0  0  0  0  0
   -2.7969    1.6716    5.1882 O   0  0  0  1  0  0  0  0  0  0  0  0
    0.1987    1.0815    3.8605 H   0  0  0  1  0  0  0  0  0  0  0  0
    0.9278   -1.1995    4.0765 H   0  0  0  1  0  0  0  0  0  0  0  0
    1.4429   -0.7039    2.4823 H   0  0  0  1  0  0  0  0  0  0  0  0
   -0.0413   -1.6051    2.6805 H   0  0  0  1  0  0  0  0  0  0  0  0
   -0.6048    4.0212    5.6655 H   0  0  0  1  0  0  0  0  0  0  0  0
   -0.7950    2.6764    6.7646 H   0  0  0  1  0  0  0  0  0  0  0  0
   -2.0735    3.8560    6.5973 H   0  0  0  1  0  0  0  0  0  0  0  0
   -1.6228    7.5417    0.7261 F   0  0  0  1  0  0  0  0  0  0  0  0
   -2.2608    6.3603    0.8314 C   0  0  0  1  0  0  0  0  0  0  0  0
   -1.5345    5.1943    1.0172 C   0  0  0  1  0  0  0  0  0  0  0  0
   -2.1888    3.9813    1.1199 C   0  0  0  1  0  0  0  0  0  0  0  0
   -3.5719    3.9313    1.0424 C   0  0  0  1  0  0  0  0  0  0  0  0
   -4.2963    5.0937    0.8570 C   0  0  0  1  0  0  0  0  0  0  0  0
   -3.6399    6.3103    0.7541 C   0  0  0  1  0  0  0  0  0  0  0  0
   -1.3975    2.7098    1.3166 C   0  0  0  1  0  0  0  0  0  0  0  0
   -0.4971    5.2324    1.0794 H   0  0  0  1  0  0  0  0  0  0  0  0
   -4.0646    3.0190    1.1236 H   0  0  0  1  0  0  0  0  0  0  0  0
   -5.3338    5.0556    0.7949 H   0  0  0  1  0  0  0  0  0  0  0  0
   -4.1852    7.1855    0.6187 H   0  0  0  1  0  0  0  0  0  0  0  0
   -1.5601    2.0625    0.4802 H   0  0  0  1  0  0  0  0  0  0  0  0
   -0.3573    2.9510    1.3847 H   0  0  0  1  0  0  0  0  0  0  0  0
  1  4  1  0  0  0  0
  2  4  1  0  0  0  0
  2  5  2  0  0  0  0
  2  6  1  0  0  0  0
  3  4  1  0  0  0  0
  3  7  1  0  0  0  0
  3  8  1  0  0  0  0
  4 26  1  0  0  0  0
  6  9  1  0  0  0  0
  6 12  1  0  0  0  0
  8 10  1  0  0  0  0
  8 11  2  0  0  0  0
  9 13  1  0  0  0  0
  9 14  1  0  0  0  0
  9 15  1  0  0  0  0
 10 16  1  0  0  0  0
 10 17  1  0  0  0  0
 10 18  1  0  0  0  0
 19 20  1  0  0  0  0
 20 21  4  0  0  0  0
 20 25  4  0  0  0  0
 21 22  4  0  0  0  0
 21 27  1  0  0  0  0
 22 23  4  0  0  0  0
 22 26  1  0  0  0  0
 23 24  4  0  0  0  0
 23 28  1  0  0  0  0
 24 25  4  0  0  0  0
 24 29  1  0  0  0  0
 25 30  1  0  0  0  0
 26 31  1  0  0  0  0
 26 32  1  0  0  0  0
M  END
> <BCLConfClusterSize>
1

> <ConfClashScore>
0 

> <ConfOneFourInteractionScore>
-0.960318 

> <ConfScore>
-0.216895 

> <ConfScorePBest>
0.00666612 

> <ConfTolerance>
0.331857 

> <RosettaParamsInstructions>
M  ROOT 3
M  POLY_N_BB 3
M  POLY_CA_BB 4
M  POLY_C_BB 2
M  POLY_O_BB 5
M  POLY_IGNORE 9 10 11 12 13 14 15 16 17 18 
M  POLY_UPPER 6
M  POLY_LOWER 8
M  POLY_CHG 0
M  POLY_PROPERTIES ALPHA_AA L_AA PROTEIN AROMATIC POLYMER 
M  END

$$$$



 32 32  0  0  0  0  0  0  0  0999 V2000
   -0.2511    2.7851   -0.4533 H   0  0  0  1  0  0  0  0  0  0  0  0
   -0.1709    0.7997    0.2435 C   0  0  0  1  0  0  0  0  0  0  0  0
   -2.0875    1.9275   -0.8461 N   0  0  0  1  0  0  0  0  0  0  0  0
   -0.9219    2.0906    0.0078 C   0  0  0  1  0  0  0  0  0  0  0  0
   -0.7726   -0.2432    0.4963 O   0  0  0  1  0  0  0  0  0  0  0  0
    1.1692    0.8264    0.1687 N   0  0  0  1  0  0  0  0  0  0  0  0
   -2.9870    1.9752   -0.4600 H   0  0  0  1  0  0  0  0  0  0  0  0
   -1.9347    1.7125   -2.1576 C   0  0  0  1  0  0  0  0  0  0  0  0
    1.9792   -0.3754    0.3000 C   0  0  0  1  0  0  0  0  0  0  0  0
   -3.1928    1.3327   -2.9139 C   0  0  0  1  0  0  0  0  0  0  0  0
   -0.8506    1.8118   -2.7308 O   0  0  0  1  0  0  0  0  0  0  0  0
    1.6176    1.6851    0.0204 H   0  0  0  1  0  0  0  0  0  0  0  0
    1.4605   -1.2049   -0.1333 H   0  0  0  1  0  0  0  0  0  0  0  0
    2.1616   -0.5709    1.3361 H   0  0  0  1  0  0  0  0  0  0  0  0
    2.9113   -0.2341   -0.2062 H   0  0  0  1  0  0  0  0  0  0  0  0
   -3.6388    0.4741   -2.4570 H   0  0  0  1  0  0  0  0  0  0  0  0
   -2.9436    1.1069   -3.9297 H   0  0  0  1  0  0  0  0  0  0  0  0
   -3.8839    2.1492   -2.8887 H   0  0  0  1  0  0  0  0  0  0  0  0
   -1.6537    7.5575    0.7223 F   0  0  0  1  0  0  0  0  0  0  0  0
   -2.2545    6.3571    0.8321 C   0  0  0  1  0  0  0  0  0  0  0  0
   -1.5311    5.1894    1.0180 C   0  0  0  1  0  0  0  0  0  0  0  0
   -2.1883    3.9779    1.1203 C   0  0  0  1  0  0  0  0  0  0  0  0
   -3.5715    3.9312    1.0424 C   0  0  0  1  0  0  0  0  0  0  0  0
   -4.2931    5.0954    0.8571 C   0  0  0  1  0  0  0  0  0  0  0  0
   -3.6337    6.3104    0.7545 C   0  0  0  1  0  0  0  0  0  0  0  0
   -1.4001    2.7045    1.3170 C   0  0  0  1  0  0  0  0  0  0  0  0
   -0.4935    5.2249    1.0805 H   0  0  0  1  0  0  0  0  0  0  0  0
   -4.0664    3.0201    1.1234 H   0  0  0  1  0  0  0  0  0  0  0  0
   -5.3306    5.0598    0.7946 H   0  0  0  1  0  0  0  0  0  0  0  0
   -4.1768    7.1869    0.6190 H   0  0  0  1  0  0  0  0  0  0  0  0
   -0.5457    2.9230    1.9229 H   0  0  0  1  0  0  0  0  0  0  0  0
   -2.0219    1.9933    1.8195 H   0  0  0  1  0  0  0  0  0  0  0  0
  1  4  1  0  0  0  0
  2  4  1  0  0  0  0
  2  5  2  0  0  0  0
  2  6  1  0  0  0  0
  3  4  1  0  0  0  0
  3  7  1  0  0  0  0
  3  8  1  0  0  0  0
  4 26  1  0  0  0  0
  6  9  1  0  0  0  0
  6 12  1  0  0  0  0
  8 10  1  0  0  0  0
  8 11  2  0  0  0  0
  9 13  1  0  0  0  0
  9 14  1  0  0  0  0
  9 15  1  0  0  0  0
 10 16  1  0  0  0  0
 10 17  1  0  0  0  0
 10 18  1  0  0  0  0
 19 20  1  0  0  0  0
 20 21  4  0  0  0  0
 20 25  4  0  0  0  0
 21 22  4  0  0  0  0
 21 27  1  0  0  0  0
 22 23  4  0  0  0  0
 22 26  1  0  0  0  0
 23 24  4  0  0  0  0
 23 28  1  0  0  0  0
 24 25  4  0  0  0  0
 24 29  1  0  0  0  0
 25 30  1  0  0  0  0
 26 31  1  0  0  0  0
 26 32  1  0  0  0  0
M  END
> <BCLConfClusterSize>
1

> <ConfClashScore>
0 

> <ConfOneFourInteractionScore>
-0.985807 

> <ConfScore>
-0.216468 

> <ConfScorePBest>
0.00663764 

> <ConfTolerance>
0.219581 

> <RosettaParamsInstructions>
M  ROOT 3
M  POLY_N_BB 3
M  POLY_CA_BB 4
M  POLY_C_BB 2
M  POLY_O_BB 5
M  POLY_IGNORE 9 10 11 12 13 14 15 16 17 18 
M  POLY_UPPER 6
M  POLY_LOWER 8
M  POLY_CHG 0
M  POLY_PROPERTIES ALPHA_AA L_AA PROTEIN AROMATIC POLYMER 
M  END

$$$$



 32 32  0  0  0  0  0  0  0  0999 V2000
   -0.5423    2.7583   -0.5799 H   0  0  0  1  0  0  0  0  0  0  0  0
   -0.0533    0.8820    0.2265 C   0  0  0  1  0  0  0  0  0  0  0  0
   -2.2039    1.5667   -0.7585 N   0  0  0  1  0  0  0  0  0  0  0  0
   -1.0462    2.0178    0.0055 C   0  0  0  1  0  0  0  0  0  0  0  0
   -0.4328   -0.2464    0.5369 O   0  0  0  1  0  0  0  0  0  0  0  0
    1.2346    1.1966    0.0613 N   0  0  0  1  0  0  0  0  0  0  0  0
   -2.9180    1.0644   -0.3132 H   0  0  0  1  0  0  0  0  0  0  0  0
   -2.2937    1.8390   -2.0749 C   0  0  0  1  0  0  0  0  0  0  0  0
    2.3081    0.2614    0.3627 C   0  0  0  1  0  0  0  0  0  0  0  0
   -3.6476    1.5644   -2.7167 C   0  0  0  1  0  0  0  0  0  0  0  0
   -1.3532    2.2816   -2.7331 O   0  0  0  1  0  0  0  0  0  0  0  0
    1.4644    2.0881   -0.2746 H   0  0  0  1  0  0  0  0  0  0  0  0
    3.0386    0.2922   -0.4186 H   0  0  0  1  0  0  0  0  0  0  0  0
    1.9081   -0.7282    0.4379 H   0  0  0  1  0  0  0  0  0  0  0  0
    2.7670    0.5326    1.2905 H   0  0  0  1  0  0  0  0  0  0  0  0
   -3.5705    1.6816   -3.7774 H   0  0  0  1  0  0  0  0  0  0  0  0
   -4.3702    2.2544   -2.3335 H   0  0  0  1  0  0  0  0  0  0  0  0
   -3.9533    0.5644   -2.4898 H   0  0  0  1  0  0  0  0  0  0  0  0
   -1.6268    7.5487    0.7250 F   0  0  0  1  0  0  0  0  0  0  0  0
   -2.2607    6.3650    0.8308 C   0  0  0  1  0  0  0  0  0  0  0  0
   -1.5303    5.2017    1.0166 C   0  0  0  1  0  0  0  0  0  0  0  0
   -2.1803    3.9864    1.1198 C   0  0  0  1  0  0  0  0  0  0  0  0
   -3.5633    3.9316    1.0429 C   0  0  0  1  0  0  0  0  0  0  0  0
   -4.2918    5.0914    0.8576 C   0  0  0  1  0  0  0  0  0  0  0  0
   -3.6396    6.3102    0.7541 C   0  0  0  1  0  0  0  0  0  0  0  0
   -1.4379    2.6859    1.3169 C   0  0  0  1  0  0  0  0  0  0  0  0
   -0.4929    5.2433    1.0783 H   0  0  0  1  0  0  0  0  0  0  0  0
   -4.0527    3.0176    1.1246 H   0  0  0  1  0  0  0  0  0  0  0  0
   -5.3291    5.0497    0.7959 H   0  0  0  1  0  0  0  0  0  0  0  0
   -4.1880    7.1835    0.6187 H   0  0  0  1  0  0  0  0  0  0  0  0
   -0.5482    2.8832    1.8776 H   0  0  0  1  0  0  0  0  0  0  0  0
   -2.0651    2.0155    1.8666 H   0  0  0  1  0  0  0  0  0  0  0  0
  1  4  1  0  0  0  0
  2  4  1  0  0  0  0
  2  5  2  0  0  0  0
  2  6  1  0  0  0  0
  3  4  1  0  0  0  0
  3  7  1  0  0  0  0
  3  8  1  0  0  0  0
  4 26  1  0  0  0  0
  6  9  1  0  0  0  0
  6 12  1  0  0  0  0
  8 10  1  0  0  0  0
  8 11  2  0  0  0  0
  9 13  1  0  0  0  0
  9 14  1  0  0  0  0
  9 15  1  0  0  0  0
 10 16  1  0  0  0  0
 10 17  1  0  0  0  0
 10 18  1  0  0  0  0
 19 20  1  0  0  0  0
 20 21  4  0  0  0  0
 20 25  4  0  0  0  0
 21 22  4  0  0  0  0
 21 27  1  0  0  0  0
 22 23  4  0  0  0  0
 22 26  1  0  0  0  0
 23 24  4  0  0  0  0
 23 28  1  0  0  0  0
 24 25  4  0  0  0  0
 24 29  1  0  0  0  0
 25 30  1  0  0  0  0
 26 31  1  0  0  0  0
 26 32  1  0  0  0  0
M  END
> <BCLConfClusterSize>
1

> <ConfClashScore>
0 

> <ConfOneFourInteractionScore>
-0.978127 

> <ConfScore>
-0.213406 

> <ConfScorePBest>
0.00660916 

> <ConfTolerance>
0.245767 

> <RosettaParamsInstructions>
M  ROOT 3
M  POLY_N_BB 3
M  POLY_CA_BB 4
M  POLY_C_BB 2
M  POLY_O_BB 5
M  POLY_IGNORE 9 10 11 12 13 14 15 16 17 18 
M  POLY_UPPER 6
M  POLY_LOWER 8
M  POLY_CHG 0
M  POLY_PROPERTIES ALPHA_AA L_AA PROTEIN AROMATIC POLYMER 
M  END

$$$$



 32 32  0  0  0  0  0  0  0  0999 V2000
   -0.8532    2.6071   -0.7135 H   0  0  0  1  0  0  0  0  0  0  0  0
   -0.1284    0.8445    0.1690 C   0  0  0  1  0  0  0  0  0  0  0  0
   -2.4495    1.3425   -0.4751 N   0  0  0  1  0  0  0  0  0  0  0  0
   -1.2058    1.9129    0.0205 C   0  0  0  1  0  0  0  0  0  0  0  0
    0.9269    1.0894    0.7522 O   0  0  0  1  0  0  0  0  0  0  0  0
   -0.3671   -0.3746   -0.3574 N   0  0  0  1  0  0  0  0  0  0  0  0
   -3.1598    1.1281    0.1652 H   0  0  0  1  0  0  0  0  0  0  0  0
   -2.6567    1.1009   -1.7727 C   0  0  0  1  0  0  0  0  0  0  0  0
    0.6199   -1.4353   -0.2214 C   0  0  0  1  0  0  0  0  0  0  0  0
   -3.9909    0.4697   -2.1204 C   0  0  0  1  0  0  0  0  0  0  0  0
   -1.8312    1.3661   -2.6424 O   0  0  0  1  0  0  0  0  0  0  0  0
   -1.2070   -0.5461   -0.8323 H   0  0  0  1  0  0  0  0  0  0  0  0
    0.9855   -1.4563    0.7840 H   0  0  0  1  0  0  0  0  0  0  0  0
    1.4331   -1.2536   -0.8926 H   0  0  0  1  0  0  0  0  0  0  0  0
    0.1668   -2.3759   -0.4556 H   0  0  0  1  0  0  0  0  0  0  0  0
   -4.3689   -0.0579   -1.2697 H   0  0  0  1  0  0  0  0  0  0  0  0
   -3.8611   -0.2126   -2.9343 H   0  0  0  1  0  0  0  0  0  0  0  0
   -4.6842    1.2344   -2.4024 H   0  0  0  1  0  0  0  0  0  0  0  0
   -1.6537    7.5575    0.7223 F   0  0  0  1  0  0  0  0  0  0  0  0
   -2.2545    6.3571    0.8321 C   0  0  0  1  0  0  0  0  0  0  0  0
   -1.5311    5.1894    1.0180 C   0  0  0  1  0  0  0  0  0  0  0  0
   -2.1883    3.9779    1.1203 C   0  0  0  1  0  0  0  0  0  0  0  0
   -3.5715    3.9312    1.0424 C   0  0  0  1  0  0  0  0  0  0  0  0
   -4.2931    5.0954    0.8571 C   0  0  0  1  0  0  0  0  0  0  0  0
   -3.6337    6.3104    0.7545 C   0  0  0  1  0  0  0  0  0  0  0  0
   -1.4001    2.7045    1.3170 C   0  0  0  1  0  0  0  0  0  0  0  0
   -0.4935    5.2249    1.0805 H   0  0  0  1  0  0  0  0  0  0  0  0
   -4.0664    3.0201    1.1234 H   0  0  0  1  0  0  0  0  0  0  0  0
   -5.3306    5.0598    0.7946 H   0  0  0  1  0  0  0  0  0  0  0  0
   -4.1768    7.1869    0.6190 H   0  0  0  1  0  0  0  0  0  0  0  0
   -0.4373    2.9571    1.7094 H   0  0  0  1  0  0  0  0  0  0  0  0
   -1.9208    2.0866    2.0185 H   0  0  0  1  0  0  0  0  0  0  0  0
  1  4  1  0  0  0  0
  2  4  1  0  0  0  0
  2  5  2  0  0  0  0
  2  6  1  0  0  0  0
  3  4  1  0  0  0  0
  3  7  1  0  0  0  0
  3  8  1  0  0  0  0
  4 26  1  0  0  0  0
  6  9  1  0  0  0  0
  6 12  1  0  0  0  0
  8 10  1  0  0  0  0
  8 11  2  0  0  0  0
  9 13  1  0  0  0  0
  9 14  1  0  0  0  0
  9 15  1  0  0  0  0
 10 16  1  0  0  0  0
 10 17  1  0  0  0  0
 10 18  1  0  0  0  0
 19 20  1  0  0  0  0
 20 21  4  0  0  0  0
 20 25  4  0  0  0  0
 21 22  4  0  0  0  0
 21 27  1  0  0  0  0
 22 23  4  0  0  0  0
 22 26  1  0  0  0  0
 23 24  4  0  0  0  0
 23 28  1  0  0  0  0
 24 25  4  0  0  0  0
 24 29  1  0  0  0  0
 25 30  1  0  0  0  0
 26 31  1  0  0  0  0
 26 32  1  0  0  0  0
M  END
> <BCLConfClusterSize>
1

> <ConfClashScore>
0 

> <ConfOneFourInteractionScore>
-0.956443 

> <ConfScore>
-0.212718 

> <ConfScorePBest>
0.00658068 

> <ConfTolerance>
0.312586 

> <RosettaParamsInstructions>
M  ROOT 3
M  POLY_N_BB 3
M  POLY_CA_BB 4
M  POLY_C_BB 2
M  POLY_O_BB 5
M  POLY_IGNORE 9 10 11 12 13 14 15 16 17 18 
M  POLY_UPPER 6
M  POLY_LOWER 8
M  POLY_CHG 0
M  POLY_PROPERTIES ALPHA_AA L_AA PROTEIN AROMATIC POLYMER 
M  END

$$$$



 32 32  0  0  0  0  0  0  0  0999 V2000
   -2.2365    1.7781   -0.3487 H   0  0  0  1  0  0  0  0  0  0  0  0
   -0.4659    2.6467   -1.0416 C   0  0  0  1  0  0  0  0  0  0  0  0
   -0.7195    0.5534    0.2704 N   0  0  0  1  0  0  0  0  0  0  0  0
   -1.2463    1.9004    0.0379 C   0  0  0  1  0  0  0  0  0  0  0  0
   -1.0237    3.4378   -1.8010 O   0  0  0  1  0  0  0  0  0  0  0  0
    0.8425    2.3824   -1.0995 N   0  0  0  1  0  0  0  0  0  0  0  0
   -0.3650    0.3743    1.1663 H   0  0  0  1  0  0  0  0  0  0  0  0
   -0.6674   -0.4587   -0.6002 C   0  0  0  1  0  0  0  0  0  0  0  0
    1.7685    2.9647   -2.0593 C   0  0  0  1  0  0  0  0  0  0  0  0
    0.2027   -1.6415   -0.1896 C   0  0  0  1  0  0  0  0  0  0  0  0
   -1.2757   -0.4545   -1.6696 O   0  0  0  1  0  0  0  0  0  0  0  0
    1.2060    1.7485   -0.4464 H   0  0  0  1  0  0  0  0  0  0  0  0
    1.4972    3.9829   -2.2448 H   0  0  0  1  0  0  0  0  0  0  0  0
    1.7270    2.4123   -2.9748 H   0  0  0  1  0  0  0  0  0  0  0  0
    2.7621    2.9268   -1.6641 H   0  0  0  1  0  0  0  0  0  0  0  0
    0.4010   -1.5914    0.8607 H   0  0  0  1  0  0  0  0  0  0  0  0
    1.1263   -1.6085   -0.7287 H   0  0  0  1  0  0  0  0  0  0  0  0
   -0.3087   -2.5545   -0.4126 H   0  0  0  1  0  0  0  0  0  0  0  0
   -1.5924    7.5248    0.7300 F   0  0  0  1  0  0  0  0  0  0  0  0
   -2.2671    6.3635    0.8306 C   0  0  0  1  0  0  0  0  0  0  0  0
   -1.5379    5.1994    1.0164 C   0  0  0  1  0  0  0  0  0  0  0  0
   -2.1893    3.9848    1.1194 C   0  0  0  1  0  0  0  0  0  0  0  0
   -3.5723    3.9314    1.0423 C   0  0  0  1  0  0  0  0  0  0  0  0
   -4.2996    5.0921    0.8570 C   0  0  0  1  0  0  0  0  0  0  0  0
   -3.6461    6.3102    0.7537 C   0  0  0  1  0  0  0  0  0  0  0  0
   -1.3949    2.7152    1.3161 C   0  0  0  1  0  0  0  0  0  0  0  0
   -0.5006    5.2399    1.0783 H   0  0  0  1  0  0  0  0  0  0  0  0
   -4.0627    3.0180    1.1239 H   0  0  0  1  0  0  0  0  0  0  0  0
   -5.3369    5.0515    0.7952 H   0  0  0  1  0  0  0  0  0  0  0  0
   -4.1935    7.1841    0.6183 H   0  0  0  1  0  0  0  0  0  0  0  0
   -0.4190    2.9754    1.6695 H   0  0  0  1  0  0  0  0  0  0  0  0
   -1.8911    2.1130    2.0482 H   0  0  0  1  0  0  0  0  0  0  0  0
  1  4  1  0  0  0  0
  2  4  1  0  0  0  0
  2  5  2  0  0  0  0
  2  6  1  0  0  0  0
  3  4  1  0  0  0  0
  3  7  1  0  0  0  0
  3  8  1  0  0  0  0
  4 26  1  0  0  0  0
  6  9  1  0  0  0  0
  6 12  1  0  0  0  0
  8 10  1  0  0  0  0
  8 11  2  0  0  0  0
  9 13  1  0  0  0  0
  9 14  1  0  0  0  0
  9 15  1  0  0  0  0
 10 16  1  0  0  0  0
 10 17  1  0  0  0  0
 10 18  1  0  0  0  0
 19 20  1  0  0  0  0
 20 21  4  0  0  0  0
 20 25  4  0  0  0  0
 21 22  4  0  0  0  0
 21 27  1  0  0  0  0
 22 23  4  0  0  0  0
 22 26  1  0  0  0  0
 23 24  4  0  0  0  0
 23 28  1  0  0  0  0
 24 25  4  0  0  0  0
 24 29  1  0  0  0  0
 25 30  1  0  0  0  0
 26 31  1  0  0  0  0
 26 32  1  0  0  0  0
M  END
> <BCLConfClusterSize>
1

> <ConfClashScore>
0 

> <ConfOneFourInteractionScore>
-0.960318 

> <ConfScore>
-0.208001 

> <ConfScorePBest>
0.0065522 

> <ConfTolerance>
0.243728 

> <RosettaParamsInstructions>
M  ROOT 3
M  POLY_N_BB 3
M  POLY_CA_BB 4
M  POLY_C_BB 2
M  POLY_O_BB 5
M  POLY_IGNORE 9 10 11 12 13 14 15 16 17 18 
M  POLY_UPPER 6
M  POLY_LOWER 8
M  POLY_CHG 0
M  POLY_PROPERTIES ALPHA_AA L_AA PROTEIN AROMATIC POLYMER 
M  END

$$$$



 32 32  0  0  0  0  0  0  0  0999 V2000
   -0.5466    2.3906   -0.5803 H   0  0  0  1  0  0  0  0  0  0  0  0
   -0.5968    0.5142    0.4008 C   0  0  0  1  0  0  0  0  0  0  0  0
   -2.4833    1.6631   -0.6527 N   0  0  0  1  0  0  0  0  0  0  0  0
   -1.2244    1.8617    0.0566 C   0  0  0  1  0  0  0  0  0  0  0  0
   -1.1753   -0.3000    1.0971 O   0  0  0  1  0  0  0  0  0  0  0  0
    0.6265    0.3341   -0.1343 N   0  0  0  1  0  0  0  0  0  0  0  0
   -3.1733    1.1004   -0.2432 H   0  0  0  1  0  0  0  0  0  0  0  0
   -2.7309    2.2270   -1.8531 C   0  0  0  1  0  0  0  0  0  0  0  0
    1.3587   -0.8728    0.2195 C   0  0  0  1  0  0  0  0  0  0  0  0
   -4.1094    2.0531   -2.4494 C   0  0  0  1  0  0  0  0  0  0  0  0
   -1.8623    2.8645   -2.4471 O   0  0  0  1  0  0  0  0  0  0  0  0
    1.0122    0.9969   -0.7445 H   0  0  0  1  0  0  0  0  0  0  0  0
    1.2669   -1.0510    1.2705 H   0  0  0  1  0  0  0  0  0  0  0  0
    2.3914   -0.7498   -0.0323 H   0  0  0  1  0  0  0  0  0  0  0  0
    0.9562   -1.7048   -0.3196 H   0  0  0  1  0  0  0  0  0  0  0  0
   -4.3461    1.0111   -2.5039 H   0  0  0  1  0  0  0  0  0  0  0  0
   -4.1282    2.4748   -3.4326 H   0  0  0  1  0  0  0  0  0  0  0  0
   -4.8294    2.5504   -1.8336 H   0  0  0  1  0  0  0  0  0  0  0  0
   -1.5964    7.5319    0.7289 F   0  0  0  1  0  0  0  0  0  0  0  0
   -2.2670    6.3683    0.8300 C   0  0  0  1  0  0  0  0  0  0  0  0
   -1.5337    5.2067    1.0158 C   0  0  0  1  0  0  0  0  0  0  0  0
   -2.1808    3.9899    1.1194 C   0  0  0  1  0  0  0  0  0  0  0  0
   -3.5636    3.9317    1.0428 C   0  0  0  1  0  0  0  0  0  0  0  0
   -4.2950    5.0898    0.8576 C   0  0  0  1  0  0  0  0  0  0  0  0
   -3.6458    6.3102    0.7537 C   0  0  0  1  0  0  0  0  0  0  0  0
   -1.4352    2.6912    1.3165 C   0  0  0  1  0  0  0  0  0  0  0  0
   -0.4965    5.2509    1.0772 H   0  0  0  1  0  0  0  0  0  0  0  0
   -4.0509    3.0166    1.1248 H   0  0  0  1  0  0  0  0  0  0  0  0
   -5.3322    5.0456    0.7962 H   0  0  0  1  0  0  0  0  0  0  0  0
   -4.1963    7.1821    0.6184 H   0  0  0  1  0  0  0  0  0  0  0  0
   -0.4733    2.9215    1.7248 H   0  0  0  1  0  0  0  0  0  0  0  0
   -1.9865    2.0967    2.0147 H   0  0  0  1  0  0  0  0  0  0  0  0
  1  4  1  0  0  0  0
  2  4  1  0  0  0  0
  2  5  2  0  0  0  0
  2  6  1  0  0  0  0
  3  4  1  0  0  0  0
  3  7  1  0  0  0  0
  3  8  1  0  0  0  0
  4 26  1  0  0  0  0
  6  9  1  0  0  0  0
  6 12  1  0  0  0  0
  8 10  1  0  0  0  0
  8 11  2  0  0  0  0
  9 13  1  0  0  0  0
  9 14  1  0  0  0  0
  9 15  1  0  0  0  0
 10 16  1  0  0  0  0
 10 17  1  0  0  0  0
 10 18  1  0  0  0  0
 19 20  1  0  0  0  0
 20 21  4  0  0  0  0
 20 25  4  0  0  0  0
 21 22  4  0  0  0  0
 21 27  1  0  0  0  0
 22 23  4  0  0  0  0
 22 26  1  0  0  0  0
 23 24  4  0  0  0  0
 23 28  1  0  0  0  0
 24 25  4  0  0  0  0
 24 29  1  0  0  0  0
 25 30  1  0  0  0  0
 26 31  1  0  0  0  0
 26 32  1  0  0  0  0
M  END
> <BCLConfClusterSize>
1

> <ConfClashScore>
0 

> <ConfOneFourInteractionScore>
-0.990503 

> <ConfScore>
-0.20794 

> <ConfScorePBest>
0.00652372 

> <ConfTolerance>
0.281084 

> <RosettaParamsInstructions>
M  ROOT 3
M  POLY_N_BB 3
M  POLY_CA_BB 4
M  POLY_C_BB 2
M  POLY_O_BB 5
M  POLY_IGNORE 9 10 11 12 13 14 15 16 17 18 
M  POLY_UPPER 6
M  POLY_LOWER 8
M  POLY_CHG 0
M  POLY_PROPERTIES ALPHA_AA L_AA PROTEIN AROMATIC POLYMER 
M  END

$$$$



 32 32  0  0  0  0  0  0  0  0999 V2000
   -0.8925    2.4536   -0.7158 H   0  0  0  1  0  0  0  0  0  0  0  0
   -0.2080    0.7635    0.3487 C   0  0  0  1  0  0  0  0  0  0  0  0
   -2.5538    1.2978   -0.2915 N   0  0  0  1  0  0  0  0  0  0  0  0
   -1.2506    1.8362    0.0814 C   0  0  0  1  0  0  0  0  0  0  0  0
   -0.3444   -0.0451    1.2658 O   0  0  0  1  0  0  0  0  0  0  0  0
    0.8477    0.7633   -0.4703 N   0  0  0  1  0  0  0  0  0  0  0  0
   -3.0247    0.6912    0.3174 H   0  0  0  1  0  0  0  0  0  0  0  0
   -3.1071    1.6298   -1.4614 C   0  0  0  1  0  0  0  0  0  0  0  0
    1.9647   -0.1535   -0.2984 C   0  0  0  1  0  0  0  0  0  0  0  0
   -4.5129    1.1122   -1.6958 C   0  0  0  1  0  0  0  0  0  0  0  0
   -2.5293    2.3099   -2.3053 O   0  0  0  1  0  0  0  0  0  0  0  0
    0.8705    1.4028   -1.2126 H   0  0  0  1  0  0  0  0  0  0  0  0
    2.0984   -0.3624    0.7424 H   0  0  0  1  0  0  0  0  0  0  0  0
    2.8552    0.2924   -0.6897 H   0  0  0  1  0  0  0  0  0  0  0  0
    1.7618   -1.0645   -0.8216 H   0  0  0  1  0  0  0  0  0  0  0  0
   -4.4958    0.0436   -1.7493 H   0  0  0  1  0  0  0  0  0  0  0  0
   -4.8902    1.5091   -2.6150 H   0  0  0  1  0  0  0  0  0  0  0  0
   -5.1447    1.4185   -0.8884 H   0  0  0  1  0  0  0  0  0  0  0  0
   -1.6228    7.5417    0.7261 F   0  0  0  1  0  0  0  0  0  0  0  0
   -2.2608    6.3603    0.8314 C   0  0  0  1  0  0  0  0  0  0  0  0
   -1.5345    5.1943    1.0172 C   0  0  0  1  0  0  0  0  0  0  0  0
   -2.1888    3.9813    1.1199 C   0  0  0  1  0  0  0  0  0  0  0  0
   -3.5719    3.9313    1.0424 C   0  0  0  1  0  0  0  0  0  0  0  0
   -4.2963    5.0937    0.8570 C   0  0  0  1  0  0  0  0  0  0  0  0
   -3.6399    6.3103    0.7541 C   0  0  0  1  0  0  0  0  0  0  0  0
   -1.3975    2.7098    1.3166 C   0  0  0  1  0  0  0  0  0  0  0  0
   -0.4971    5.2324    1.0794 H   0  0  0  1  0  0  0  0  0  0  0  0
   -4.0646    3.0190    1.1236 H   0  0  0  1  0  0  0  0  0  0  0  0
   -5.3338    5.0556    0.7949 H   0  0  0  1  0  0  0  0  0  0  0  0
   -4.1852    7.1855    0.6187 H   0  0  0  1  0  0  0  0  0  0  0  0
   -0.4168    2.9794    1.6487 H   0  0  0  1  0  0  0  0  0  0  0  0
   -1.8847    2.1316    2.0737 H   0  0  0  1  0  0  0  0  0  0  0  0
  1  4  1  0  0  0  0
  2  4  1  0  0  0  0
  2  5  2  0  0  0  0
  2  6  1  0  0  0  0
  3  4  1  0  0  0  0
  3  7  1  0  0  0  0
  3  8  1  0  0  0  0
  4 26  1  0  0  0  0
  6  9  1  0  0  0  0
  6 12  1  0  0  0  0
  8 10  1  0  0  0  0
  8 11  2  0  0  0  0
  9 13  1  0  0  0  0
  9 14  1  0  0  0  0
  9 15  1  0  0  0  0
 10 16  1  0  0  0  0
 10 17  1  0  0  0  0
 10 18  1  0  0  0  0
 19 20  1  0  0  0  0
 20 21  4  0  0  0  0
 20 25  4  0  0  0  0
 21 22  4  0  0  0  0
 21 27  1  0  0  0  0
 22 23  4  0  0  0  0
 22 26  1  0  0  0  0
 23 24  4  0  0  0  0
 23 28  1  0  0  0  0
 24 25  4  0  0  0  0
 24 29  1  0  0  0  0
 25 30  1  0  0  0  0
 26 31  1  0  0  0  0
 26 32  1  0  0  0  0
M  END
> <BCLConfClusterSize>
1

> <ConfClashScore>
0 

> <ConfOneFourInteractionScore>
-0.967579 

> <ConfScore>
-0.20794 

> <ConfScorePBest>
0.00649524 

> <ConfTolerance>
0.30369 

> <RosettaParamsInstructions>
M  ROOT 3
M  POLY_N_BB 3
M  POLY_CA_BB 4
M  POLY_C_BB 2
M  POLY_O_BB 5
M  POLY_IGNORE 9 10 11 12 13 14 15 16 17 18 
M  POLY_UPPER 6
M  POLY_LOWER 8
M  POLY_CHG 0
M  POLY_PROPERTIES ALPHA_AA L_AA PROTEIN AROMATIC POLYMER 
M  END

$$$$



 32 32  0  0  0  0  0  0  0  0999 V2000
   -1.6991    2.2585    3.3766 H   0  0  0  1  0  0  0  0  0  0  0  0
    0.1601    1.4261    2.7695 C   0  0  0  1  0  0  0  0  0  0  0  0
   -0.3069    3.7912    3.2219 N   0  0  0  1  0  0  0  0  0  0  0  0
   -0.8804    2.5404    2.7480 C   0  0  0  1  0  0  0  0  0  0  0  0
    1.3476    1.6588    2.5593 O   0  0  0  1  0  0  0  0  0  0  0  0
   -0.3063    0.2013    3.0288 N   0  0  0  1  0  0  0  0  0  0  0  0
    0.3038    4.2662    2.6205 H   0  0  0  1  0  0  0  0  0  0  0  0
   -0.5495    4.3387    4.4109 C   0  0  0  1  0  0  0  0  0  0  0  0
    0.5610   -0.9661    3.0806 C   0  0  0  1  0  0  0  0  0  0  0  0
    0.1041    5.6827    4.7337 C   0  0  0  1  0  0  0  0  0  0  0  0
   -1.2681    3.8286    5.2663 O   0  0  0  1  0  0  0  0  0  0  0  0
   -1.2660    0.0850    3.1899 H   0  0  0  1  0  0  0  0  0  0  0  0
   -0.0289   -1.8421    3.2524 H   0  0  0  1  0  0  0  0  0  0  0  0
    1.2673   -0.8504    3.8759 H   0  0  0  1  0  0  0  0  0  0  0  0
    1.0824   -1.0642    2.1513 H   0  0  0  1  0  0  0  0  0  0  0  0
   -0.5284    6.4774    4.3970 H   0  0  0  1  0  0  0  0  0  0  0  0
    1.0507    5.7466    4.2390 H   0  0  0  1  0  0  0  0  0  0  0  0
    0.2472    5.7647    5.7909 H   0  0  0  1  0  0  0  0  0  0  0  0
   -1.6228    7.5417    0.7261 F   0  0  0  1  0  0  0  0  0  0  0  0
   -2.2608    6.3603    0.8314 C   0  0  0  1  0  0  0  0  0  0  0  0
   -1.5345    5.1943    1.0172 C   0  0  0  1  0  0  0  0  0  0  0  0
   -2.1888    3.9813    1.1199 C   0  0  0  1  0  0  0  0  0  0  0  0
   -3.5719    3.9313    1.0424 C   0  0  0  1  0  0  0  0  0  0  0  0
   -4.2963    5.0937    0.8570 C   0  0  0  1  0  0  0  0  0  0  0  0
   -3.6399    6.3103    0.7541 C   0  0  0  1  0  0  0  0  0  0  0  0
   -1.3975    2.7098    1.3166 C   0  0  0  1  0  0  0  0  0  0  0  0
   -0.4971    5.2324    1.0794 H   0  0  0  1  0  0  0  0  0  0  0  0
   -4.0646    3.0190    1.1236 H   0  0  0  1  0  0  0  0  0  0  0  0
   -5.3338    5.0556    0.7949 H   0  0  0  1  0  0  0  0  0  0  0  0
   -4.1852    7.1855    0.6187 H   0  0  0  1  0  0  0  0  0  0  0  0
   -2.0269    1.8771    1.0810 H   0  0  0  1  0  0  0  0  0  0  0  0
   -0.5597    2.7237    0.6512 H   0  0  0  1  0  0  0  0  0  0  0  0
  1  4  1  0  0  0  0
  2  4  1  0  0  0  0
  2  5  2  0  0  0  0
  2  6  1  0  0  0  0
  3  4  1  0  0  0  0
  3  7  1  0  0  0  0
  3  8  1  0  0  0  0
  4 26  1  0  0  0  0
  6  9  1  0  0  0  0
  6 12  1  0  0  0  0
  8 10  1  0  0  0  0
  8 11  2  0  0  0  0
  9 13  1  0  0  0  0
  9 14  1  0  0  0  0
  9 15  1  0  0  0  0
 10 16  1  0  0  0  0
 10 17  1  0  0  0  0
 10 18  1  0  0  0  0
 19 20  1  0  0  0  0
 20 21  4  0  0  0  0
 20 25  4  0  0  0  0
 21 22  4  0  0  0  0
 21 27  1  0  0  0  0
 22 23  4  0  0  0  0
 22 26  1  0  0  0  0
 23 24  4  0  0  0  0
 23 28  1  0  0  0  0
 24 25  4  0  0  0  0
 24 29  1  0  0  0  0
 25 30  1  0  0  0  0
 26 31  1  0  0  0  0
 26 32  1  0  0  0  0
M  END
> <BCLConfClusterSize>
1

> <ConfClashScore>
0 

> <ConfOneFourInteractionScore>
-0.974177 

> <ConfScore>
-0.206576 

> <ConfScorePBest>
0.00646676 

> <ConfTolerance>
0.384102 

> <RosettaParamsInstructions>
M  ROOT 3
M  POLY_N_BB 3
M  POLY_CA_BB 4
M  POLY_C_BB 2
M  POLY_O_BB 5
M  POLY_IGNORE 9 10 11 12 13 14 15 16 17 18 
M  POLY_UPPER 6
M  POLY_LOWER 8
M  POLY_CHG 0
M  POLY_PROPERTIES ALPHA_AA L_AA PROTEIN AROMATIC POLYMER 
M  END

$$$$



 32 32  0  0  0  0  0  0  0  0999 V2000
   -0.5043    3.1998    3.1702 H   0  0  0  1  0  0  0  0  0  0  0  0
   -2.4007    2.3141    3.5841 C   0  0  0  1  0  0  0  0  0  0  0  0
   -0.3701    1.1432    2.8482 N   0  0  0  1  0  0  0  0  0  0  0  0
   -1.1041    2.4020    2.7846 C   0  0  0  1  0  0  0  0  0  0  0  0
   -2.8329    3.2810    4.2059 O   0  0  0  1  0  0  0  0  0  0  0  0
   -3.0219    1.1251    3.5582 N   0  0  0  1  0  0  0  0  0  0  0  0
   -0.2784    0.6234    2.0225 H   0  0  0  1  0  0  0  0  0  0  0  0
    0.1840    0.6546    3.9582 C   0  0  0  1  0  0  0  0  0  0  0  0
   -4.3228    0.9141    4.1755 C   0  0  0  1  0  0  0  0  0  0  0  0
    0.7117   -0.7542    3.8613 C   0  0  0  1  0  0  0  0  0  0  0  0
    0.2681    1.2964    5.0020 O   0  0  0  1  0  0  0  0  0  0  0  0
   -2.5845    0.3726    3.1079 H   0  0  0  1  0  0  0  0  0  0  0  0
   -4.5580    1.7459    4.8062 H   0  0  0  1  0  0  0  0  0  0  0  0
   -4.2986    0.0187    4.7607 H   0  0  0  1  0  0  0  0  0  0  0  0
   -5.0683    0.8227    3.4134 H   0  0  0  1  0  0  0  0  0  0  0  0
    0.1925   -1.2775    3.0858 H   0  0  0  1  0  0  0  0  0  0  0  0
    0.5598   -1.2565    4.7938 H   0  0  0  1  0  0  0  0  0  0  0  0
    1.7573   -0.7284    3.6357 H   0  0  0  1  0  0  0  0  0  0  0  0
   -1.6268    7.5487    0.7250 F   0  0  0  1  0  0  0  0  0  0  0  0
   -2.2607    6.3650    0.8308 C   0  0  0  1  0  0  0  0  0  0  0  0
   -1.5303    5.2017    1.0166 C   0  0  0  1  0  0  0  0  0  0  0  0
   -2.1803    3.9864    1.1198 C   0  0  0  1  0  0  0  0  0  0  0  0
   -3.5633    3.9316    1.0429 C   0  0  0  1  0  0  0  0  0  0  0  0
   -4.2918    5.0914    0.8576 C   0  0  0  1  0  0  0  0  0  0  0  0
   -3.6396    6.3102    0.7541 C   0  0  0  1  0  0  0  0  0  0  0  0
   -1.4379    2.6859    1.3169 C   0  0  0  1  0  0  0  0  0  0  0  0
   -0.4929    5.2433    1.0783 H   0  0  0  1  0  0  0  0  0  0  0  0
   -4.0527    3.0176    1.1246 H   0  0  0  1  0  0  0  0  0  0  0  0
   -5.3291    5.0497    0.7959 H   0  0  0  1  0  0  0  0  0  0  0  0
   -4.1880    7.1835    0.6187 H   0  0  0  1  0  0  0  0  0  0  0  0
   -2.0452    1.8872    0.9452 H   0  0  0  1  0  0  0  0  0  0  0  0
   -0.5241    2.7278    0.7618 H   0  0  0  1  0  0  0  0  0  0  0  0
  1  4  1  0  0  0  0
  2  4  1  0  0  0  0
  2  5  2  0  0  0  0
  2  6  1  0  0  0  0
  3  4  1  0  0  0  0
  3  7  1  0  0  0  0
  3  8  1  0  0  0  0
  4 26  1  0  0  0  0
  6  9  1  0  0  0  0
  6 12  1  0  0  0  0
  8 10  1  0  0  0  0
  8 11  2  0  0  0  0
  9 13  1  0  0  0  0
  9 14  1  0  0  0  0
  9 15  1  0  0  0  0
 10 16  1  0  0  0  0
 10 17  1  0  0  0  0
 10 18  1  0  0  0  0
 19 20  1  0  0  0  0
 20 21  4  0  0  0  0
 20 25  4  0  0  0  0
 21 22  4  0  0  0  0
 21 27  1  0  0  0  0
 22 23  4  0  0  0  0
 22 26  1  0  0  0  0
 23 24  4  0  0  0  0
 23 28  1  0  0  0  0
 24 25  4  0  0  0  0
 24 29  1  0  0  0  0
 25 30  1  0  0  0  0
 26 31  1  0  0  0  0
 26 32  1  0  0  0  0
M  END
> <BCLConfClusterSize>
1

> <ConfClashScore>
0 

> <ConfOneFourInteractionScore>
-0.960318 

> <ConfScore>
-0.206554 

> <ConfScorePBest>
0.00643828 

> <ConfTolerance>
0.262306 

> <RosettaParamsInstructions>
M  ROOT 3
M  POLY_N_BB 3
M  POLY_CA_BB 4
M  POLY_C_BB 2
M  POLY_O_BB 5
M  POLY_IGNORE 9 10 11 12 13 14 15 16 17 18 
M  POLY_UPPER 6
M  POLY_LOWER 8
M  POLY_CHG 0
M  POLY_PROPERTIES ALPHA_AA L_AA PROTEIN AROMATIC POLYMER 
M  END

$$$$



 32 32  0  0  0  0  0  0  0  0999 V2000
   -2.4933    2.1227    3.0201 H   0  0  0  1  0  0  0  0  0  0  0  0
   -0.8884    0.7790    2.8403 C   0  0  0  1  0  0  0  0  0  0  0  0
   -0.8031    3.1170    3.6496 N   0  0  0  1  0  0  0  0  0  0  0  0
   -1.4607    2.1800    2.7457 C   0  0  0  1  0  0  0  0  0  0  0  0
    0.2424    0.5881    3.2859 O   0  0  0  1  0  0  0  0  0  0  0  0
   -1.6516   -0.2439    2.4241 N   0  0  0  1  0  0  0  0  0  0  0  0
   -0.0712    3.6584    3.2870 H   0  0  0  1  0  0  0  0  0  0  0  0
   -1.1229    3.2924    4.9326 C   0  0  0  1  0  0  0  0  0  0  0  0
   -1.0919   -1.5843    2.3354 C   0  0  0  1  0  0  0  0  0  0  0  0
   -0.3064    4.3293    5.6792 C   0  0  0  1  0  0  0  0  0  0  0  0
   -2.0123    2.6678    5.4870 O   0  0  0  1  0  0  0  0  0  0  0  0
   -2.5876   -0.0877    2.1794 H   0  0  0  1  0  0  0  0  0  0  0  0
   -0.3802   -1.7270    3.1216 H   0  0  0  1  0  0  0  0  0  0  0  0
   -0.6071   -1.7062    1.3893 H   0  0  0  1  0  0  0  0  0  0  0  0
   -1.8768   -2.3053    2.4300 H   0  0  0  1  0  0  0  0  0  0  0  0
   -0.0671    5.1376    5.0203 H   0  0  0  1  0  0  0  0  0  0  0  0
    0.5972    3.8814    6.0368 H   0  0  0  1  0  0  0  0  0  0  0  0
   -0.8731    4.7004    6.5075 H   0  0  0  1  0  0  0  0  0  0  0  0
   -1.6537    7.5575    0.7223 F   0  0  0  1  0  0  0  0  0  0  0  0
   -2.2545    6.3571    0.8321 C   0  0  0  1  0  0  0  0  0  0  0  0
   -1.5311    5.1894    1.0180 C   0  0  0  1  0  0  0  0  0  0  0  0
   -2.1883    3.9779    1.1203 C   0  0  0  1  0  0  0  0  0  0  0  0
   -3.5715    3.9312    1.0424 C   0  0  0  1  0  0  0  0  0  0  0  0
   -4.2931    5.0954    0.8571 C   0  0  0  1  0  0  0  0  0  0  0  0
   -3.6337    6.3104    0.7545 C   0  0  0  1  0  0  0  0  0  0  0  0
   -1.4001    2.7045    1.3170 C   0  0  0  1  0  0  0  0  0  0  0  0
   -0.4935    5.2249    1.0805 H   0  0  0  1  0  0  0  0  0  0  0  0
   -4.0664    3.0201    1.1234 H   0  0  0  1  0  0  0  0  0  0  0  0
   -5.3306    5.0598    0.7946 H   0  0  0  1  0  0  0  0  0  0  0  0
   -4.1768    7.1869    0.6190 H   0  0  0  1  0  0  0  0  0  0  0  0
   -1.7941    1.9555    0.6623 H   0  0  0  1  0  0  0  0  0  0  0  0
   -0.3773    2.8950    1.0672 H   0  0  0  1  0  0  0  0  0  0  0  0
  1  4  1  0  0  0  0
  2  4  1  0  0  0  0
  2  5  2  0  0  0  0
  2  6  1  0  0  0  0
  3  4  1  0  0  0  0
  3  7  1  0  0  0  0
  3  8  1  0  0  0  0
  4 26  1  0  0  0  0
  6  9  1  0  0  0  0
  6 12  1  0  0  0  0
  8 10  1  0  0  0  0
  8 11  2  0  0  0  0
  9 13  1  0  0  0  0
  9 14  1  0  0  0  0
  9 15  1  0  0  0  0
 10 16  1  0  0  0  0
 10 17  1  0  0  0  0
 10 18  1  0  0  0  0
 19 20  1  0  0  0  0
 20 21  4  0  0  0  0
 20 25  4  0  0  0  0
 21 22  4  0  0  0  0
 21 27  1  0  0  0  0
 22 23  4  0  0  0  0
 22 26  1  0  0  0  0
 23 24  4  0  0  0  0
 23 28  1  0  0  0  0
 24 25  4  0  0  0  0
 24 29  1  0  0  0  0
 25 30  1  0  0  0  0
 26 31  1  0  0  0  0
 26 32  1  0  0  0  0
M  END
> <BCLConfClusterSize>
1

> <ConfClashScore>
0 

> <ConfOneFourInteractionScore>
-0.985807 

> <ConfScore>
-0.204208 

> <ConfScorePBest>
0.0064098 

> <ConfTolerance>
0.282997 

> <RosettaParamsInstructions>
M  ROOT 3
M  POLY_N_BB 3
M  POLY_CA_BB 4
M  POLY_C_BB 2
M  POLY_O_BB 5
M  POLY_IGNORE 9 10 11 12 13 14 15 16 17 18 
M  POLY_UPPER 6
M  POLY_LOWER 8
M  POLY_CHG 0
M  POLY_PROPERTIES ALPHA_AA L_AA PROTEIN AROMATIC POLYMER 
M  END

$$$$



 32 32  0  0  0  0  0  0  0  0999 V2000
   -0.4925    2.5779   -0.5784 H   0  0  0  1  0  0  0  0  0  0  0  0
   -0.2759    0.6860    0.3698 C   0  0  0  1  0  0  0  0  0  0  0  0
   -2.2766    1.5164   -0.6818 N   0  0  0  1  0  0  0  0  0  0  0  0
   -1.0843    1.9378    0.0420 C   0  0  0  1  0  0  0  0  0  0  0  0
   -0.8131   -0.4152    0.4562 O   0  0  0  1  0  0  0  0  0  0  0  0
    1.0344    0.8725    0.5525 N   0  0  0  1  0  0  0  0  0  0  0  0
   -3.1160    1.4076   -0.1879 H   0  0  0  1  0  0  0  0  0  0  0  0
   -2.2653    1.2735   -1.9934 C   0  0  0  1  0  0  0  0  0  0  0  0
    1.8771   -0.2335    0.9818 C   0  0  0  1  0  0  0  0  0  0  0  0
   -3.5872    0.8360   -2.5937 C   0  0  0  1  0  0  0  0  0  0  0  0
   -1.2566    1.3914   -2.6879 O   0  0  0  1  0  0  0  0  0  0  0  0
    1.4288    1.7561    0.3971 H   0  0  0  1  0  0  0  0  0  0  0  0
    1.6043   -1.1190    0.4466 H   0  0  0  1  0  0  0  0  0  0  0  0
    1.7446   -0.3962    2.0310 H   0  0  0  1  0  0  0  0  0  0  0  0
    2.9020    0.0014    0.7834 H   0  0  0  1  0  0  0  0  0  0  0  0
   -4.2188    0.4477   -1.8222 H   0  0  0  1  0  0  0  0  0  0  0  0
   -3.4118    0.0765   -3.3267 H   0  0  0  1  0  0  0  0  0  0  0  0
   -4.0639    1.6751   -3.0558 H   0  0  0  1  0  0  0  0  0  0  0  0
   -1.6268    7.5487    0.7250 F   0  0  0  1  0  0  0  0  0  0  0  0
   -2.2607    6.3650    0.8308 C   0  0  0  1  0  0  0  0  0  0  0  0
   -1.5303    5.2017    1.0166 C   0  0  0  1  0  0  0  0  0  0  0  0
   -2.1803    3.9864    1.1198 C   0  0  0  1  0  0  0  0  0  0  0  0
   -3.5633    3.9316    1.0429 C   0  0  0  1  0  0  0  0  0  0  0  0
   -4.2918    5.0914    0.8576 C   0  0  0  1  0  0  0  0  0  0  0  0
   -3.6396    6.3102    0.7541 C   0  0  0  1  0  0  0  0  0  0  0  0
   -1.4379    2.6859    1.3169 C   0  0  0  1  0  0  0  0  0  0  0  0
   -0.4929    5.2433    1.0783 H   0  0  0  1  0  0  0  0  0  0  0  0
   -4.0527    3.0176    1.1246 H   0  0  0  1  0  0  0  0  0  0  0  0
   -5.3291    5.0497    0.7959 H   0  0  0  1  0  0  0  0  0  0  0  0
   -4.1880    7.1835    0.6187 H   0  0  0  1  0  0  0  0  0  0  0  0
   -0.5276    2.9009    1.8366 H   0  0  0  1  0  0  0  0  0  0  0  0
   -2.0489    2.0447    1.9172 H   0  0  0  1  0  0  0  0  0  0  0  0
  1  4  1  0  0  0  0
  2  4  1  0  0  0  0
  2  5  2  0  0  0  0
  2  6  1  0  0  0  0
  3  4  1  0  0  0  0
  3  7  1  0  0  0  0
  3  8  1  0  0  0  0
  4 26  1  0  0  0  0
  6  9  1  0  0  0  0
  6 12  1  0  0  0  0
  8 10  1  0  0  0  0
  8 11  2  0  0  0  0
  9 13  1  0  0  0  0
  9 14  1  0  0  0  0
  9 15  1  0  0  0  0
 10 16  1  0  0  0  0
 10 17  1  0  0  0  0
 10 18  1  0  0  0  0
 19 20  1  0  0  0  0
 20 21  4  0  0  0  0
 20 25  4  0  0  0  0
 21 22  4  0  0  0  0
 21 27  1  0  0  0  0
 22 23  4  0  0  0  0
 22 26  1  0  0  0  0
 23 24  4  0  0  0  0
 23 28  1  0  0  0  0
 24 25  4  0  0  0  0
 24 29  1  0  0  0  0
 25 30  1  0  0  0  0
 26 31  1  0  0  0  0
 26 32  1  0  0  0  0
M  END
> <BCLConfClusterSize>
1

> <ConfClashScore>
0 

> <ConfOneFourInteractionScore>
-0.985807 

> <ConfScore>
-0.204095 

> <ConfScorePBest>
0.00638132 

> <ConfTolerance>
0.258671 

> <RosettaParamsInstructions>
M  ROOT 3
M  POLY_N_BB 3
M  POLY_CA_BB 4
M  POLY_C_BB 2
M  POLY_O_BB 5
M  POLY_IGNORE 9 10 11 12 13 14 15 16 17 18 
M  POLY_UPPER 6
M  POLY_LOWER 8
M  POLY_CHG 0
M  POLY_PROPERTIES ALPHA_AA L_AA PROTEIN AROMATIC POLYMER 
M  END

$$$$



 32 32  0  0  0  0  0  0  0  0999 V2000
   -0.3979    2.8837   -0.6035 H   0  0  0  1  0  0  0  0  0  0  0  0
    0.2137    1.0790    0.3083 C   0  0  0  1  0  0  0  0  0  0  0  0
   -1.9738    1.5598   -0.7759 N   0  0  0  1  0  0  0  0  0  0  0  0
   -0.8553    2.1091   -0.0242 C   0  0  0  1  0  0  0  0  0  0  0  0
    1.3851    1.4096    0.4875 O   0  0  0  1  0  0  0  0  0  0  0  0
   -0.2075   -0.1930    0.3900 N   0  0  0  1  0  0  0  0  0  0  0  0
   -2.6688    1.0638   -0.2949 H   0  0  0  1  0  0  0  0  0  0  0  0
   -2.0873    1.7098   -2.1119 C   0  0  0  1  0  0  0  0  0  0  0  0
    0.6598   -1.2718    0.8394 C   0  0  0  1  0  0  0  0  0  0  0  0
   -3.2777    1.0802   -2.7993 C   0  0  0  1  0  0  0  0  0  0  0  0
   -1.2481    2.3398   -2.7542 O   0  0  0  1  0  0  0  0  0  0  0  0
   -1.1312   -0.4025    0.1384 H   0  0  0  1  0  0  0  0  0  0  0  0
    1.6761   -0.9372    0.8375 H   0  0  0  1  0  0  0  0  0  0  0  0
    0.5587   -2.1085    0.1801 H   0  0  0  1  0  0  0  0  0  0  0  0
    0.3822   -1.5628    1.8309 H   0  0  0  1  0  0  0  0  0  0  0  0
   -3.8695    0.5550   -2.0790 H   0  0  0  1  0  0  0  0  0  0  0  0
   -2.9363    0.3956   -3.5474 H   0  0  0  1  0  0  0  0  0  0  0  0
   -3.8697    1.8445   -3.2579 H   0  0  0  1  0  0  0  0  0  0  0  0
   -1.5890    7.5187    0.7252 F   0  0  0  1  0  0  0  0  0  0  0  0
   -2.2671    6.3599    0.8318 C   0  0  0  1  0  0  0  0  0  0  0  0
   -1.5418    5.1958    1.0325 C   0  0  0  1  0  0  0  0  0  0  0  0
   -2.1967    3.9836    1.1422 C   0  0  0  1  0  0  0  0  0  0  0  0
   -3.5793    3.9328    1.0569 C   0  0  0  1  0  0  0  0  0  0  0  0
   -4.3026    5.0934    0.8567 C   0  0  0  1  0  0  0  0  0  0  0  0
   -3.6456    6.3091    0.7467 C   0  0  0  1  0  0  0  0  0  0  0  0
   -1.3643    2.7284    1.2562 C   0  0  0  1  0  0  0  0  0  0  0  0
   -0.5048    5.2345    1.1006 H   0  0  0  1  0  0  0  0  0  0  0  0
   -4.0724    3.0212    1.1434 H   0  0  0  1  0  0  0  0  0  0  0  0
   -5.3397    5.0547    0.7887 H   0  0  0  1  0  0  0  0  0  0  0  0
   -4.1901    7.1830    0.6001 H   0  0  0  1  0  0  0  0  0  0  0  0
   -0.5121    2.9629    1.8592 H   0  0  0  1  0  0  0  0  0  0  0  0
   -1.9615    1.9922    1.7526 H   0  0  0  1  0  0  0  0  0  0  0  0
  1  4  1  0  0  0  0
  2  4  1  0  0  0  0
  2  5  2  0  0  0  0
  2  6  1  0  0  0  0
  3  4  1  0  0  0  0
  3  7  1  0  0  0  0
  3  8  1  0  0  0  0
  4 26  1  0  0  0  0
  6  9  1  0  0  0  0
  6 12  1  0  0  0  0
  8 10  1  0  0  0  0
  8 11  2  0  0  0  0
  9 13  1  0  0  0  0
  9 14  1  0  0  0  0
  9 15  1  0  0  0  0
 10 16  1  0  0  0  0
 10 17  1  0  0  0  0
 10 18  1  0  0  0  0
 19 20  1  0  0  0  0
 20 21  4  0  0  0  0
 20 25  4  0  0  0  0
 21 22  4  0  0  0  0
 21 27  1  0  0  0  0
 22 23  4  0  0  0  0
 22 26  1  0  0  0  0
 23 24  4  0  0  0  0
 23 28  1  0  0  0  0
 24 25  4  0  0  0  0
 24 29  1  0  0  0  0
 25 30  1  0  0  0  0
 26 31  1  0  0  0  0
 26 32  1  0  0  0  0
M  END
> <BCLConfClusterSize>
1

> <ConfClashScore>
0 

> <ConfOneFourInteractionScore>
-0.956443 

> <ConfScore>
-0.203373 

> <ConfScorePBest>
0.00635284 

> <ConfTolerance>
0.341852 

> <RosettaParamsInstructions>
M  ROOT 3
M  POLY_N_BB 3
M  POLY_CA_BB 4
M  POLY_C_BB 2
M  POLY_O_BB 5
M  POLY_IGNORE 9 10 11 12 13 14 15 16 17 18 
M  POLY_UPPER 6
M  POLY_LOWER 8
M  POLY_CHG 0
M  POLY_PROPERTIES ALPHA_AA L_AA PROTEIN AROMATIC POLYMER 
M  END

$$$$



 32 32  0  0  0  0  0  0  0  0999 V2000
   -1.7056    2.0303   -0.6645 H   0  0  0  1  0  0  0  0  0  0  0  0
    0.1889    2.9962   -0.6391 C   0  0  0  1  0  0  0  0  0  0  0  0
   -0.3047    0.8088    0.2744 N   0  0  0  1  0  0  0  0  0  0  0  0
   -0.8770    2.1233    0.0060 C   0  0  0  1  0  0  0  0  0  0  0  0
   -0.0764    3.7008   -1.6118 O   0  0  0  1  0  0  0  0  0  0  0  0
    1.4248    2.9739   -0.1155 N   0  0  0  1  0  0  0  0  0  0  0  0
   -0.1965    0.5211    1.2050 H   0  0  0  1  0  0  0  0  0  0  0  0
    0.0805   -0.0236   -0.7125 C   0  0  0  1  0  0  0  0  0  0  0  0
    2.4939    3.8290   -0.6093 C   0  0  0  1  0  0  0  0  0  0  0  0
    0.8015   -1.2701   -0.2155 C   0  0  0  1  0  0  0  0  0  0  0  0
   -0.1153    0.1734   -1.9110 O   0  0  0  1  0  0  0  0  0  0  0  0
    1.6137    2.3605    0.6251 H   0  0  0  1  0  0  0  0  0  0  0  0
    3.0648    3.2993   -1.3430 H   0  0  0  1  0  0  0  0  0  0  0  0
    3.1306    4.1090    0.2038 H   0  0  0  1  0  0  0  0  0  0  0  0
    2.0722    4.7073   -1.0517 H   0  0  0  1  0  0  0  0  0  0  0  0
    1.6823   -0.9835    0.3202 H   0  0  0  1  0  0  0  0  0  0  0  0
    1.0751   -1.8803   -1.0508 H   0  0  0  1  0  0  0  0  0  0  0  0
    0.1536   -1.8219    0.4330 H   0  0  0  1  0  0  0  0  0  0  0  0
   -1.6498    7.5509    0.7233 F   0  0  0  1  0  0  0  0  0  0  0  0
   -2.2546    6.3525    0.8327 C   0  0  0  1  0  0  0  0  0  0  0  0
   -1.5350    5.1824    1.0186 C   0  0  0  1  0  0  0  0  0  0  0  0
   -2.1962    3.9730    1.1204 C   0  0  0  1  0  0  0  0  0  0  0  0
   -3.5795    3.9308    1.0419 C   0  0  0  1  0  0  0  0  0  0  0  0
   -4.2972    5.0974    0.8565 C   0  0  0  1  0  0  0  0  0  0  0  0
   -3.6339    6.3103    0.7545 C   0  0  0  1  0  0  0  0  0  0  0  0
   -1.3634    2.7282    1.3164 C   0  0  0  1  0  0  0  0  0  0  0  0
   -0.4974    5.2145    1.0815 H   0  0  0  1  0  0  0  0  0  0  0  0
   -4.0774    3.0213    1.1226 H   0  0  0  1  0  0  0  0  0  0  0  0
   -5.3348    5.0652    0.7937 H   0  0  0  1  0  0  0  0  0  0  0  0
   -4.1741    7.1886    0.6190 H   0  0  0  1  0  0  0  0  0  0  0  0
   -0.5111    2.9791    1.9128 H   0  0  0  1  0  0  0  0  0  0  0  0
   -1.9558    1.9993    1.8289 H   0  0  0  1  0  0  0  0  0  0  0  0
  1  4  1  0  0  0  0
  2  4  1  0  0  0  0
  2  5  2  0  0  0  0
  2  6  1  0  0  0  0
  3  4  1  0  0  0  0
  3  7  1  0  0  0  0
  3  8  1  0  0  0  0
  4 26  1  0  0  0  0
  6  9  1  0  0  0  0
  6 12  1  0  0  0  0
  8 10  1  0  0  0  0
  8 11  2  0  0  0  0
  9 13  1  0  0  0  0
  9 14  1  0  0  0  0
  9 15  1  0  0  0  0
 10 16  1  0  0  0  0
 10 17  1  0  0  0  0
 10 18  1  0  0  0  0
 19 20  1  0  0  0  0
 20 21  4  0  0  0  0
 20 25  4  0  0  0  0
 21 22  4  0  0  0  0
 21 27  1  0  0  0  0
 22 23  4  0  0  0  0
 22 26  1  0  0  0  0
 23 24  4  0  0  0  0
 23 28  1  0  0  0  0
 24 25  4  0  0  0  0
 24 29  1  0  0  0  0
 25 30  1  0  0  0  0
 26 31  1  0  0  0  0
 26 32  1  0  0  0  0
M  END
> <BCLConfClusterSize>
1

> <ConfClashScore>
0 

> <ConfOneFourInteractionScore>
-0.960318 

> <ConfScore>
-0.198688 

> <ConfScorePBest>
0.00632436 

> <ConfTolerance>
0.33187 

> <RosettaParamsInstructions>
M  ROOT 3
M  POLY_N_BB 3
M  POLY_CA_BB 4
M  POLY_C_BB 2
M  POLY_O_BB 5
M  POLY_IGNORE 9 10 11 12 13 14 15 16 17 18 
M  POLY_UPPER 6
M  POLY_LOWER 8
M  POLY_CHG 0
M  POLY_PROPERTIES ALPHA_AA L_AA PROTEIN AROMATIC POLYMER 
M  END

$$$$



 32 32  0  0  0  0  0  0  0  0999 V2000
   -2.1880    2.3233    3.2374 H   0  0  0  1  0  0  0  0  0  0  0  0
   -0.7640    0.8024    2.8205 C   0  0  0  1  0  0  0  0  0  0  0  0
   -0.2909    3.1217    3.4675 N   0  0  0  1  0  0  0  0  0  0  0  0
   -1.2326    2.2617    2.7595 C   0  0  0  1  0  0  0  0  0  0  0  0
    0.2399    0.4558    2.2036 O   0  0  0  1  0  0  0  0  0  0  0  0
   -1.4436   -0.0149    3.6298 N   0  0  0  1  0  0  0  0  0  0  0  0
    0.5813    3.3239    3.0691 H   0  0  0  1  0  0  0  0  0  0  0  0
   -0.6273    3.6538    4.7029 C   0  0  0  1  0  0  0  0  0  0  0  0
   -1.0151   -1.3610    3.9797 C   0  0  0  1  0  0  0  0  0  0  0  0
    0.3539    4.5514    5.4032 C   0  0  0  1  0  0  0  0  0  0  0  0
   -1.7115    3.3747    5.1813 O   0  0  0  1  0  0  0  0  0  0  0  0
   -2.2843    0.3129    4.0123 H   0  0  0  1  0  0  0  0  0  0  0  0
    0.0328   -1.4631    3.7891 H   0  0  0  1  0  0  0  0  0  0  0  0
   -1.5556   -2.0716    3.3899 H   0  0  0  1  0  0  0  0  0  0  0  0
   -1.2076   -1.5379    5.0173 H   0  0  0  1  0  0  0  0  0  0  0  0
    1.3189    4.0893    5.4099 H   0  0  0  1  0  0  0  0  0  0  0  0
    0.0306    4.7162    6.4098 H   0  0  0  1  0  0  0  0  0  0  0  0
    0.4107    5.4877    4.8885 H   0  0  0  1  0  0  0  0  0  0  0  0
   -1.6228    7.5417    0.7261 F   0  0  0  1  0  0  0  0  0  0  0  0
   -2.2608    6.3603    0.8314 C   0  0  0  1  0  0  0  0  0  0  0  0
   -1.5345    5.1943    1.0172 C   0  0  0  1  0  0  0  0  0  0  0  0
   -2.1888    3.9813    1.1199 C   0  0  0  1  0  0  0  0  0  0  0  0
   -3.5719    3.9313    1.0424 C   0  0  0  1  0  0  0  0  0  0  0  0
   -4.2963    5.0937    0.8570 C   0  0  0  1  0  0  0  0  0  0  0  0
   -3.6399    6.3103    0.7541 C   0  0  0  1  0  0  0  0  0  0  0  0
   -1.3975    2.7098    1.3166 C   0  0  0  1  0  0  0  0  0  0  0  0
   -0.4971    5.2324    1.0794 H   0  0  0  1  0  0  0  0  0  0  0  0
   -4.0646    3.0190    1.1236 H   0  0  0  1  0  0  0  0  0  0  0  0
   -5.3338    5.0556    0.7949 H   0  0  0  1  0  0  0  0  0  0  0  0
   -4.1852    7.1855    0.6187 H   0  0  0  1  0  0  0  0  0  0  0  0
   -1.8934    1.9265    0.7823 H   0  0  0  1  0  0  0  0  0  0  0  0
   -0.4218    2.8612    0.9043 H   0  0  0  1  0  0  0  0  0  0  0  0
  1  4  1  0  0  0  0
  2  4  1  0  0  0  0
  2  5  2  0  0  0  0
  2  6  1  0  0  0  0
  3  4  1  0  0  0  0
  3  7  1  0  0  0  0
  3  8  1  0  0  0  0
  4 26  1  0  0  0  0
  6  9  1  0  0  0  0
  6 12  1  0  0  0  0
  8 10  1  0  0  0  0
  8 11  2  0  0  0  0
  9 13  1  0  0  0  0
  9 14  1  0  0  0  0
  9 15  1  0  0  0  0
 10 16  1  0  0  0  0
 10 17  1  0  0  0  0
 10 18  1  0  0  0  0
 19 20  1  0  0  0  0
 20 21  4  0  0  0  0
 20 25  4  0  0  0  0
 21 22  4  0  0  0  0
 21 27  1  0  0  0  0
 22 23  4  0  0  0  0
 22 26  1  0  0  0  0
 23 24  4  0  0  0  0
 23 28  1  0  0  0  0
 24 25  4  0  0  0  0
 24 29  1  0  0  0  0
 25 30  1  0  0  0  0
 26 31  1  0  0  0  0
 26 32  1  0  0  0  0
M  END
> <BCLConfClusterSize>
1

> <ConfClashScore>
0 

> <ConfOneFourInteractionScore>
-0.967579 

> <ConfScore>
-0.187733 

> <ConfScorePBest>
0.00629587 

> <ConfTolerance>
0.27062 

> <RosettaParamsInstructions>
M  ROOT 3
M  POLY_N_BB 3
M  POLY_CA_BB 4
M  POLY_C_BB 2
M  POLY_O_BB 5
M  POLY_IGNORE 9 10 11 12 13 14 15 16 17 18 
M  POLY_UPPER 6
M  POLY_LOWER 8
M  POLY_CHG 0
M  POLY_PROPERTIES ALPHA_AA L_AA PROTEIN AROMATIC POLYMER 
M  END

$$$$



 32 32  0  0  0  0  0  0  0  0999 V2000
   -2.3330    1.5691   -0.2481 H   0  0  0  1  0  0  0  0  0  0  0  0
   -0.6221    2.5203   -1.0486 C   0  0  0  1  0  0  0  0  0  0  0  0
   -0.6504    0.5456    0.3900 N   0  0  0  1  0  0  0  0  0  0  0  0
   -1.3391    1.7931    0.0789 C   0  0  0  1  0  0  0  0  0  0  0  0
   -1.2340    3.2783   -1.8002 O   0  0  0  1  0  0  0  0  0  0  0  0
    0.6953    2.3102   -1.1979 N   0  0  0  1  0  0  0  0  0  0  0  0
   -0.4543    0.3345    1.3267 H   0  0  0  1  0  0  0  0  0  0  0  0
   -0.2740   -0.3279   -0.5668 C   0  0  0  1  0  0  0  0  0  0  0  0
    1.4416    2.8297   -2.3342 C   0  0  0  1  0  0  0  0  0  0  0  0
    0.5082   -1.5559   -0.1433 C   0  0  0  1  0  0  0  0  0  0  0  0
   -0.5558   -0.1360   -1.7490 O   0  0  0  1  0  0  0  0  0  0  0  0
    1.1711    1.7887   -0.5181 H   0  0  0  1  0  0  0  0  0  0  0  0
    2.2026    2.1305   -2.6115 H   0  0  0  1  0  0  0  0  0  0  0  0
    1.8941    3.7618   -2.0673 H   0  0  0  1  0  0  0  0  0  0  0  0
    0.7767    2.9787   -3.1592 H   0  0  0  1  0  0  0  0  0  0  0  0
    1.5349   -1.4387   -0.4209 H   0  0  0  1  0  0  0  0  0  0  0  0
    0.1044   -2.4203   -0.6277 H   0  0  0  1  0  0  0  0  0  0  0  0
    0.4372   -1.6752    0.9177 H   0  0  0  1  0  0  0  0  0  0  0  0
   -1.6268    7.5487    0.7250 F   0  0  0  1  0  0  0  0  0  0  0  0
   -2.2607    6.3650    0.8308 C   0  0  0  1  0  0  0  0  0  0  0  0
   -1.5303    5.2017    1.0166 C   0  0  0  1  0  0  0  0  0  0  0  0
   -2.1803    3.9864    1.1198 C   0  0  0  1  0  0  0  0  0  0  0  0
   -3.5633    3.9316    1.0429 C   0  0  0  1  0  0  0  0  0  0  0  0
   -4.2918    5.0914    0.8576 C   0  0  0  1  0  0  0  0  0  0  0  0
   -3.6396    6.3102    0.7541 C   0  0  0  1  0  0  0  0  0  0  0  0
   -1.4379    2.6859    1.3169 C   0  0  0  1  0  0  0  0  0  0  0  0
   -0.4929    5.2433    1.0783 H   0  0  0  1  0  0  0  0  0  0  0  0
   -4.0527    3.0176    1.1246 H   0  0  0  1  0  0  0  0  0  0  0  0
   -5.3291    5.0497    0.7959 H   0  0  0  1  0  0  0  0  0  0  0  0
   -4.1880    7.1835    0.6187 H   0  0  0  1  0  0  0  0  0  0  0  0
   -0.4435    2.9186    1.6362 H   0  0  0  1  0  0  0  0  0  0  0  0
   -1.9389    2.1327    2.0837 H   0  0  0  1  0  0  0  0  0  0  0  0
  1  4  1  0  0  0  0
  2  4  1  0  0  0  0
  2  5  2  0  0  0  0
  2  6  1  0  0  0  0
  3  4  1  0  0  0  0
  3  7  1  0  0  0  0
  3  8  1  0  0  0  0
  4 26  1  0  0  0  0
  6  9  1  0  0  0  0
  6 12  1  0  0  0  0
  8 10  1  0  0  0  0
  8 11  2  0  0  0  0
  9 13  1  0  0  0  0
  9 14  1  0  0  0  0
  9 15  1  0  0  0  0
 10 16  1  0  0  0  0
 10 17  1  0  0  0  0
 10 18  1  0  0  0  0
 19 20  1  0  0  0  0
 20 21  4  0  0  0  0
 20 25  4  0  0  0  0
 21 22  4  0  0  0  0
 21 27  1  0  0  0  0
 22 23  4  0  0  0  0
 22 26  1  0  0  0  0
 23 24  4  0  0  0  0
 23 28  1  0  0  0  0
 24 25  4  0  0  0  0
 24 29  1  0  0  0  0
 25 30  1  0  0  0  0
 26 31  1  0  0  0  0
 26 32  1  0  0  0  0
M  END
> <BCLConfClusterSize>
1

> <ConfClashScore>
0 

> <ConfOneFourInteractionScore>
-0.960318 

> <ConfScore>
-0.186281 

> <ConfScorePBest>
0.00626739 

> <ConfTolerance>
0.369255 

> <RosettaParamsInstructions>
M  ROOT 3
M  POLY_N_BB 3
M  POLY_CA_BB 4
M  POLY_C_BB 2
M  POLY_O_BB 5
M  POLY_IGNORE 9 10 11 12 13 14 15 16 17 18 
M  POLY_UPPER 6
M  POLY_LOWER 8
M  POLY_CHG 0
M  POLY_PROPERTIES ALPHA_AA L_AA PROTEIN AROMATIC POLYMER 
M  END

$$$$



 32 32  0  0  0  0  0  0  0  0999 V2000
   -0.0646    3.2112    2.8742 H   0  0  0  1  0  0  0  0  0  0  0  0
   -1.9480    2.9229    3.7595 C   0  0  0  1  0  0  0  0  0  0  0  0
   -0.3947    1.1816    2.9412 N   0  0  0  1  0  0  0  0  0  0  0  0
   -0.8864    2.5376    2.7478 C   0  0  0  1  0  0  0  0  0  0  0  0
   -1.9985    4.0488    4.2266 O   0  0  0  1  0  0  0  0  0  0  0  0
   -2.8119    1.9523    4.0968 N   0  0  0  1  0  0  0  0  0  0  0  0
   -0.5651    0.5130    2.2452 H   0  0  0  1  0  0  0  0  0  0  0  0
    0.2809    0.8165    4.0345 C   0  0  0  1  0  0  0  0  0  0  0  0
   -3.9046    2.1745    5.0319 C   0  0  0  1  0  0  0  0  0  0  0  0
    0.8075   -0.6176    4.1129 C   0  0  0  1  0  0  0  0  0  0  0  0
    0.5058    1.5654    4.9843 O   0  0  0  1  0  0  0  0  0  0  0  0
   -2.7028    1.0631    3.6995 H   0  0  0  1  0  0  0  0  0  0  0  0
   -4.3617    1.2384    5.2760 H   0  0  0  1  0  0  0  0  0  0  0  0
   -4.6311    2.8200    4.5842 H   0  0  0  1  0  0  0  0  0  0  0  0
   -3.5243    2.6285    5.9230 H   0  0  0  1  0  0  0  0  0  0  0  0
    1.4900   -0.7920    3.3075 H   0  0  0  1  0  0  0  0  0  0  0  0
   -0.0114   -1.3025    4.0406 H   0  0  0  1  0  0  0  0  0  0  0  0
    1.3123   -0.7615    5.0453 H   0  0  0  1  0  0  0  0  0  0  0  0
   -1.6228    7.5417    0.7261 F   0  0  0  1  0  0  0  0  0  0  0  0
   -2.2608    6.3603    0.8314 C   0  0  0  1  0  0  0  0  0  0  0  0
   -1.5345    5.1943    1.0172 C   0  0  0  1  0  0  0  0  0  0  0  0
   -2.1888    3.9813    1.1199 C   0  0  0  1  0  0  0  0  0  0  0  0
   -3.5719    3.9313    1.0424 C   0  0  0  1  0  0  0  0  0  0  0  0
   -4.2963    5.0937    0.8570 C   0  0  0  1  0  0  0  0  0  0  0  0
   -3.6399    6.3103    0.7541 C   0  0  0  1  0  0  0  0  0  0  0  0
   -1.3975    2.7098    1.3166 C   0  0  0  1  0  0  0  0  0  0  0  0
   -0.4971    5.2324    1.0794 H   0  0  0  1  0  0  0  0  0  0  0  0
   -4.0646    3.0190    1.1236 H   0  0  0  1  0  0  0  0  0  0  0  0
   -5.3338    5.0556    0.7949 H   0  0  0  1  0  0  0  0  0  0  0  0
   -4.1852    7.1855    0.6187 H   0  0  0  1  0  0  0  0  0  0  0  0
   -2.0255    1.8773    1.0767 H   0  0  0  1  0  0  0  0  0  0  0  0
   -0.5572    2.7258    0.6544 H   0  0  0  1  0  0  0  0  0  0  0  0
  1  4  1  0  0  0  0
  2  4  1  0  0  0  0
  2  5  2  0  0  0  0
  2  6  1  0  0  0  0
  3  4  1  0  0  0  0
  3  7  1  0  0  0  0
  3  8  1  0  0  0  0
  4 26  1  0  0  0  0
  6  9  1  0  0  0  0
  6 12  1  0  0  0  0
  8 10  1  0  0  0  0
  8 11  2  0  0  0  0
  9 13  1  0  0  0  0
  9 14  1  0  0  0  0
  9 15  1  0  0  0  0
 10 16  1  0  0  0  0
 10 17  1  0  0  0  0
 10 18  1  0  0  0  0
 19 20  1  0  0  0  0
 20 21  4  0  0  0  0
 20 25  4  0  0  0  0
 21 22  4  0  0  0  0
 21 27  1  0  0  0  0
 22 23  4  0  0  0  0
 22 26  1  0  0  0  0
 23 24  4  0  0  0  0
 23 28  1  0  0  0  0
 24 25  4  0  0  0  0
 24 29  1  0  0  0  0
 25 30  1  0  0  0  0
 26 31  1  0  0  0  0
 26 32  1  0  0  0  0
M  END
> <BCLConfClusterSize>
1

> <ConfClashScore>
0 

> <ConfOneFourInteractionScore>
-0.946221 

> <ConfScore>
-0.185523 

> <ConfScorePBest>
0.00623891 

> <ConfTolerance>
0.318328 

> <RosettaParamsInstructions>
M  ROOT 3
M  POLY_N_BB 3
M  POLY_CA_BB 4
M  POLY_C_BB 2
M  POLY_O_BB 5
M  POLY_IGNORE 9 10 11 12 13 14 15 16 17 18 
M  POLY_UPPER 6
M  POLY_LOWER 8
M  POLY_CHG 0
M  POLY_PROPERTIES ALPHA_AA L_AA PROTEIN AROMATIC POLYMER 
M  END

$$$$



 32 32  0  0  0  0  0  0  0  0999 V2000
   -2.3653    2.4659    3.1575 H   0  0  0  1  0  0  0  0  0  0  0  0
   -1.0748    0.8417    2.9749 C   0  0  0  1  0  0  0  0  0  0  0  0
   -0.4990    3.1874    3.5635 N   0  0  0  1  0  0  0  0  0  0  0  0
   -1.3709    2.3132    2.7932 C   0  0  0  1  0  0  0  0  0  0  0  0
   -1.9209   -0.0101    2.7063 O   0  0  0  1  0  0  0  0  0  0  0  0
    0.1360    0.4944    3.4370 N   0  0  0  1  0  0  0  0  0  0  0  0
    0.2555    3.6201    3.1120 H   0  0  0  1  0  0  0  0  0  0  0  0
   -0.6932    3.4228    4.8777 C   0  0  0  1  0  0  0  0  0  0  0  0
    0.4604   -0.9075    3.6549 C   0  0  0  1  0  0  0  0  0  0  0  0
    0.2709    4.3552    5.5850 C   0  0  0  1  0  0  0  0  0  0  0  0
   -1.6244    2.8976    5.4867 O   0  0  0  1  0  0  0  0  0  0  0  0
    0.8034    1.1861    3.6281 H   0  0  0  1  0  0  0  0  0  0  0  0
   -0.4430   -1.4768    3.7226 H   0  0  0  1  0  0  0  0  0  0  0  0
    1.0139   -1.0079    4.5651 H   0  0  0  1  0  0  0  0  0  0  0  0
    1.0488   -1.2684    2.8374 H   0  0  0  1  0  0  0  0  0  0  0  0
   -0.1413    5.3422    5.6114 H   0  0  0  1  0  0  0  0  0  0  0  0
    1.2020    4.3718    5.0580 H   0  0  0  1  0  0  0  0  0  0  0  0
    0.4324    4.0095    6.5847 H   0  0  0  1  0  0  0  0  0  0  0  0
   -1.5924    7.5248    0.7300 F   0  0  0  1  0  0  0  0  0  0  0  0
   -2.2671    6.3635    0.8306 C   0  0  0  1  0  0  0  0  0  0  0  0
   -1.5379    5.1994    1.0164 C   0  0  0  1  0  0  0  0  0  0  0  0
   -2.1893    3.9848    1.1194 C   0  0  0  1  0  0  0  0  0  0  0  0
   -3.5723    3.9314    1.0423 C   0  0  0  1  0  0  0  0  0  0  0  0
   -4.2996    5.0921    0.8570 C   0  0  0  1  0  0  0  0  0  0  0  0
   -3.6461    6.3102    0.7537 C   0  0  0  1  0  0  0  0  0  0  0  0
   -1.3949    2.7152    1.3161 C   0  0  0  1  0  0  0  0  0  0  0  0
   -0.5006    5.2399    1.0783 H   0  0  0  1  0  0  0  0  0  0  0  0
   -4.0627    3.0180    1.1239 H   0  0  0  1  0  0  0  0  0  0  0  0
   -5.3369    5.0515    0.7952 H   0  0  0  1  0  0  0  0  0  0  0  0
   -4.1935    7.1841    0.6183 H   0  0  0  1  0  0  0  0  0  0  0  0
   -1.8434    1.9289    0.7457 H   0  0  0  1  0  0  0  0  0  0  0  0
   -0.3917    2.8734    0.9792 H   0  0  0  1  0  0  0  0  0  0  0  0
  1  4  1  0  0  0  0
  2  4  1  0  0  0  0
  2  5  2  0  0  0  0
  2  6  1  0  0  0  0
  3  4  1  0  0  0  0
  3  7  1  0  0  0  0
  3  8  1  0  0  0  0
  4 26  1  0  0  0  0
  6  9  1  0  0  0  0
  6 12  1  0  0  0  0
  8 10  1  0  0  0  0
  8 11  2  0  0  0  0
  9 13  1  0  0  0  0
  9 14  1  0  0  0  0
  9 15  1  0  0  0  0
 10 16  1  0  0  0  0
 10 17  1  0  0  0  0
 10 18  1  0  0  0  0
 19 20  1  0  0  0  0
 20 21  4  0  0  0  0
 20 25  4  0  0  0  0
 21 22  4  0  0  0  0
 21 27  1  0  0  0  0
 22 23  4  0  0  0  0
 22 26  1  0  0  0  0
 23 24  4  0  0  0  0
 23 28  1  0  0  0  0
 24 25  4  0  0  0  0
 24 29  1  0  0  0  0
 25 30  1  0  0  0  0
 26 31  1  0  0  0  0
 26 32  1  0  0  0  0
M  END
> <BCLConfClusterSize>
1

> <ConfClashScore>
0 

> <ConfOneFourInteractionScore>
-0.960318 

> <ConfScore>
-0.184857 

> <ConfScorePBest>
0.00621043 

> <ConfTolerance>
0.34624 

> <RosettaParamsInstructions>
M  ROOT 3
M  POLY_N_BB 3
M  POLY_CA_BB 4
M  POLY_C_BB 2
M  POLY_O_BB 5
M  POLY_IGNORE 9 10 11 12 13 14 15 16 17 18 
M  POLY_UPPER 6
M  POLY_LOWER 8
M  POLY_CHG 0
M  POLY_PROPERTIES ALPHA_AA L_AA PROTEIN AROMATIC POLYMER 
M  END

$$$$



 32 32  0  0  0  0  0  0  0  0999 V2000
   -0.3130    3.0794   -0.5008 H   0  0  0  1  0  0  0  0  0  0  0  0
    0.3983    1.2671    0.2822 C   0  0  0  1  0  0  0  0  0  0  0  0
   -1.8146    1.7101   -0.8053 N   0  0  0  1  0  0  0  0  0  0  0  0
   -0.7332    2.2396    0.0121 C   0  0  0  1  0  0  0  0  0  0  0  0
    0.1831    0.0696    0.4503 O   0  0  0  1  0  0  0  0  0  0  0  0
    1.6213    1.7979    0.3230 N   0  0  0  1  0  0  0  0  0  0  0  0
   -2.6806    1.5628   -0.3709 H   0  0  0  1  0  0  0  0  0  0  0  0
   -1.7147    1.4068   -2.1162 C   0  0  0  1  0  0  0  0  0  0  0  0
    2.8546    1.0390    0.4682 C   0  0  0  1  0  0  0  0  0  0  0  0
   -2.9481    0.8771   -2.8213 C   0  0  0  1  0  0  0  0  0  0  0  0
   -0.6551    1.5548   -2.7238 O   0  0  0  1  0  0  0  0  0  0  0  0
    1.6950    2.7724    0.2497 H   0  0  0  1  0  0  0  0  0  0  0  0
    2.6645    0.1547    1.0398 H   0  0  0  1  0  0  0  0  0  0  0  0
    3.5848    1.6382    0.9708 H   0  0  0  1  0  0  0  0  0  0  0  0
    3.2211    0.7661   -0.4993 H   0  0  0  1  0  0  0  0  0  0  0  0
   -3.8140    1.0782   -2.2258 H   0  0  0  1  0  0  0  0  0  0  0  0
   -2.8511   -0.1789   -2.9641 H   0  0  0  1  0  0  0  0  0  0  0  0
   -3.0495    1.3582   -3.7717 H   0  0  0  1  0  0  0  0  0  0  0  0
   -1.5849    7.5113    0.7321 F   0  0  0  1  0  0  0  0  0  0  0  0
   -2.2671    6.3543    0.8317 C   0  0  0  1  0  0  0  0  0  0  0  0
   -1.5456    5.1854    1.0176 C   0  0  0  1  0  0  0  0  0  0  0  0
   -2.2048    3.9749    1.1197 C   0  0  0  1  0  0  0  0  0  0  0  0
   -3.5881    3.9305    1.0414 C   0  0  0  1  0  0  0  0  0  0  0  0
   -4.3077    5.0959    0.8560 C   0  0  0  1  0  0  0  0  0  0  0  0
   -3.6463    6.3099    0.7537 C   0  0  0  1  0  0  0  0  0  0  0  0
   -1.3231    2.7642    1.3147 C   0  0  0  1  0  0  0  0  0  0  0  0
   -0.5080    5.2192    1.0803 H   0  0  0  1  0  0  0  0  0  0  0  0
   -4.0844    3.0202    1.1222 H   0  0  0  1  0  0  0  0  0  0  0  0
   -5.3453    5.0620    0.7933 H   0  0  0  1  0  0  0  0  0  0  0  0
   -4.1880    7.1873    0.6183 H   0  0  0  1  0  0  0  0  0  0  0  0
   -0.5198    3.0298    1.9697 H   0  0  0  1  0  0  0  0  0  0  0  0
   -1.9063    1.9866    1.7619 H   0  0  0  1  0  0  0  0  0  0  0  0
  1  4  1  0  0  0  0
  2  4  1  0  0  0  0
  2  5  2  0  0  0  0
  2  6  1  0  0  0  0
  3  4  1  0  0  0  0
  3  7  1  0  0  0  0
  3  8  1  0  0  0  0
  4 26  1  0  0  0  0
  6  9  1  0  0  0  0
  6 12  1  0  0  0  0
  8 10  1  0  0  0  0
  8 11  2  0  0  0  0
  9 13  1  0  0  0  0
  9 14  1  0  0  0  0
  9 15  1  0  0  0  0
 10 16  1  0  0  0  0
 10 17  1  0  0  0  0
 10 18  1  0  0  0  0
 19 20  1  0  0  0  0
 20 21  4  0  0  0  0
 20 25  4  0  0  0  0
 21 22  4  0  0  0  0
 21 27  1  0  0  0  0
 22 23  4  0  0  0  0
 22 26  1  0  0  0  0
 23 24  4  0  0  0  0
 23 28  1  0  0  0  0
 24 25  4  0  0  0  0
 24 29  1  0  0  0  0
 25 30  1  0  0  0  0
 26 31  1  0  0  0  0
 26 32  1  0  0  0  0
M  END
> <BCLConfClusterSize>
1

> <ConfClashScore>
0 

> <ConfOneFourInteractionScore>
-0.974251 

> <ConfScore>
-0.176613 

> <ConfScorePBest>
0.00618195 

> <ConfTolerance>
0.29673 

> <RosettaParamsInstructions>
M  ROOT 3
M  POLY_N_BB 3
M  POLY_CA_BB 4
M  POLY_C_BB 2
M  POLY_O_BB 5
M  POLY_IGNORE 9 10 11 12 13 14 15 16 17 18 
M  POLY_UPPER 6
M  POLY_LOWER 8
M  POLY_CHG 0
M  POLY_PROPERTIES ALPHA_AA L_AA PROTEIN AROMATIC POLYMER 
M  END

$$$$



 32 32  0  0  0  0  0  0  0  0999 V2000
   -0.1413    2.8831   -0.3768 H   0  0  0  1  0  0  0  0  0  0  0  0
   -0.0512    0.8789    0.2789 C   0  0  0  1  0  0  0  0  0  0  0  0
   -1.8777    1.9190   -0.9589 N   0  0  0  1  0  0  0  0  0  0  0  0
   -0.8220    2.1585    0.0187 C   0  0  0  1  0  0  0  0  0  0  0  0
    0.7943    0.8136    1.1673 O   0  0  0  1  0  0  0  0  0  0  0  0
   -0.3539   -0.1526   -0.5145 N   0  0  0  1  0  0  0  0  0  0  0  0
   -2.7896    1.7551   -0.6396 H   0  0  0  1  0  0  0  0  0  0  0  0
   -1.6429    1.9154   -2.2855 C   0  0  0  1  0  0  0  0  0  0  0  0
    0.1640   -1.4922   -0.2797 C   0  0  0  1  0  0  0  0  0  0  0  0
   -2.9091    1.8756   -3.1314 C   0  0  0  1  0  0  0  0  0  0  0  0
   -0.5270    1.9412   -2.7979 O   0  0  0  1  0  0  0  0  0  0  0  0
   -0.9454   -0.0019   -1.2813 H   0  0  0  1  0  0  0  0  0  0  0  0
    1.2337   -1.4669   -0.2816 H   0  0  0  1  0  0  0  0  0  0  0  0
   -0.1784   -2.1474   -1.0533 H   0  0  0  1  0  0  0  0  0  0  0  0
   -0.1824   -1.8471    0.6684 H   0  0  0  1  0  0  0  0  0  0  0  0
   -2.6950    1.4157   -4.0735 H   0  0  0  1  0  0  0  0  0  0  0  0
   -3.2611    2.8729   -3.2934 H   0  0  0  1  0  0  0  0  0  0  0  0
   -3.6607    1.3100   -2.6214 H   0  0  0  1  0  0  0  0  0  0  0  0
   -1.6228    7.5417    0.7261 F   0  0  0  1  0  0  0  0  0  0  0  0
   -2.2608    6.3603    0.8314 C   0  0  0  1  0  0  0  0  0  0  0  0
   -1.5345    5.1943    1.0172 C   0  0  0  1  0  0  0  0  0  0  0  0
   -2.1888    3.9813    1.1199 C   0  0  0  1  0  0  0  0  0  0  0  0
   -3.5719    3.9313    1.0424 C   0  0  0  1  0  0  0  0  0  0  0  0
   -4.2963    5.0937    0.8570 C   0  0  0  1  0  0  0  0  0  0  0  0
   -3.6399    6.3103    0.7541 C   0  0  0  1  0  0  0  0  0  0  0  0
   -1.3975    2.7098    1.3166 C   0  0  0  1  0  0  0  0  0  0  0  0
   -0.4971    5.2324    1.0794 H   0  0  0  1  0  0  0  0  0  0  0  0
   -4.0646    3.0190    1.1236 H   0  0  0  1  0  0  0  0  0  0  0  0
   -5.3338    5.0556    0.7949 H   0  0  0  1  0  0  0  0  0  0  0  0
   -4.1852    7.1855    0.6187 H   0  0  0  1  0  0  0  0  0  0  0  0
   -0.5898    2.9119    1.9886 H   0  0  0  1  0  0  0  0  0  0  0  0
   -2.0418    1.9705    1.7446 H   0  0  0  1  0  0  0  0  0  0  0  0
  1  4  1  0  0  0  0
  2  4  1  0  0  0  0
  2  5  2  0  0  0  0
  2  6  1  0  0  0  0
  3  4  1  0  0  0  0
  3  7  1  0  0  0  0
  3  8  1  0  0  0  0
  4 26  1  0  0  0  0
  6  9  1  0  0  0  0
  6 12  1  0  0  0  0
  8 10  1  0  0  0  0
  8 11  2  0  0  0  0
  9 13  1  0  0  0  0
  9 14  1  0  0  0  0
  9 15  1  0  0  0  0
 10 16  1  0  0  0  0
 10 17  1  0  0  0  0
 10 18  1  0  0  0  0
 19 20  1  0  0  0  0
 20 21  4  0  0  0  0
 20 25  4  0  0  0  0
 21 22  4  0  0  0  0
 21 27  1  0  0  0  0
 22 23  4  0  0  0  0
 22 26  1  0  0  0  0
 23 24  4  0  0  0  0
 23 28  1  0  0  0  0
 24 25  4  0  0  0  0
 24 29  1  0  0  0  0
 25 30  1  0  0  0  0
 26 31  1  0  0  0  0
 26 32  1  0  0  0  0
M  END
> <BCLConfClusterSize>
1

> <ConfClashScore>
1.76176e-05 

> <ConfOneFourInteractionScore>
-0.94165 

> <ConfScore>
-0.176312 

> <ConfScorePBest>
0.00615347 

> <ConfTolerance>
0.344907 

> <RosettaParamsInstructions>
M  ROOT 3
M  POLY_N_BB 3
M  POLY_CA_BB 4
M  POLY_C_BB 2
M  POLY_O_BB 5
M  POLY_IGNORE 9 10 11 12 13 14 15 16 17 18 
M  POLY_UPPER 6
M  POLY_LOWER 8
M  POLY_CHG 0
M  POLY_PROPERTIES ALPHA_AA L_AA PROTEIN AROMATIC POLYMER 
M  END

$$$$



 32 32  0  0  0  0  0  0  0  0999 V2000
   -1.9154    2.5434    3.3587 H   0  0  0  1  0  0  0  0  0  0  0  0
   -0.6312    0.9163    2.9952 C   0  0  0  1  0  0  0  0  0  0  0  0
    0.0094    3.2851    3.1993 N   0  0  0  1  0  0  0  0  0  0  0  0
   -1.0527    2.3624    2.7521 C   0  0  0  1  0  0  0  0  0  0  0  0
    0.5407    0.5632    2.8702 O   0  0  0  1  0  0  0  0  0  0  0  0
   -1.6146    0.0737    3.3489 N   0  0  0  1  0  0  0  0  0  0  0  0
    0.4728    3.8321    2.5311 H   0  0  0  1  0  0  0  0  0  0  0  0
    0.3609    3.4002    4.4831 C   0  0  0  1  0  0  0  0  0  0  0  0
   -1.4104   -1.3641    3.4424 C   0  0  0  1  0  0  0  0  0  0  0  0
    1.5013    4.3677    4.7728 C   0  0  0  1  0  0  0  0  0  0  0  0
   -0.1895    2.7733    5.3870 O   0  0  0  1  0  0  0  0  0  0  0  0
   -2.5010    0.4397    3.5511 H   0  0  0  1  0  0  0  0  0  0  0  0
   -0.3963   -1.5635    3.7195 H   0  0  0  1  0  0  0  0  0  0  0  0
   -1.6163   -1.8158    2.4946 H   0  0  0  1  0  0  0  0  0  0  0  0
   -2.0683   -1.7702    4.1821 H   0  0  0  1  0  0  0  0  0  0  0  0
    2.1798    4.3781    3.9454 H   0  0  0  1  0  0  0  0  0  0  0  0
    2.0196    4.0539    5.6547 H   0  0  0  1  0  0  0  0  0  0  0  0
    1.1057    5.3506    4.9217 H   0  0  0  1  0  0  0  0  0  0  0  0
   -1.6578    7.5643    0.7212 F   0  0  0  1  0  0  0  0  0  0  0  0
   -2.2544    6.3619    0.8315 C   0  0  0  1  0  0  0  0  0  0  0  0
   -1.5268    5.1967    1.0174 C   0  0  0  1  0  0  0  0  0  0  0  0
   -2.1798    3.9830    1.1202 C   0  0  0  1  0  0  0  0  0  0  0  0
   -3.5628    3.9315    1.0429 C   0  0  0  1  0  0  0  0  0  0  0  0
   -4.2885    5.0931    0.8576 C   0  0  0  1  0  0  0  0  0  0  0  0
   -3.6334    6.3104    0.7545 C   0  0  0  1  0  0  0  0  0  0  0  0
   -1.4405    2.6806    1.3174 C   0  0  0  1  0  0  0  0  0  0  0  0
   -0.4894    5.2359    1.0794 H   0  0  0  1  0  0  0  0  0  0  0  0
   -4.0545    3.0187    1.1243 H   0  0  0  1  0  0  0  0  0  0  0  0
   -5.3259    5.0539    0.7956 H   0  0  0  1  0  0  0  0  0  0  0  0
   -4.1796    7.1850    0.6191 H   0  0  0  1  0  0  0  0  0  0  0  0
   -2.0659    1.8889    0.9611 H   0  0  0  1  0  0  0  0  0  0  0  0
   -0.5445    2.7181    0.7338 H   0  0  0  1  0  0  0  0  0  0  0  0
  1  4  1  0  0  0  0
  2  4  1  0  0  0  0
  2  5  2  0  0  0  0
  2  6  1  0  0  0  0
  3  4  1  0  0  0  0
  3  7  1  0  0  0  0
  3  8  1  0  0  0  0
  4 26  1  0  0  0  0
  6  9  1  0  0  0  0
  6 12  1  0  0  0  0
  8 10  1  0  0  0  0
  8 11  2  0  0  0  0
  9 13  1  0  0  0  0
  9 14  1  0  0  0  0
  9 15  1  0  0  0  0
 10 16  1  0  0  0  0
 10 17  1  0  0  0  0
 10 18  1  0  0  0  0
 19 20  1  0  0  0  0
 20 21  4  0  0  0  0
 20 25  4  0  0  0  0
 21 22  4  0  0  0  0
 21 27  1  0  0  0  0
 22 23  4  0  0  0  0
 22 26  1  0  0  0  0
 23 24  4  0  0  0  0
 23 28  1  0  0  0  0
 24 25  4  0  0  0  0
 24 29  1  0  0  0  0
 25 30  1  0  0  0  0
 26 31  1  0  0  0  0
 26 32  1  0  0  0  0
M  END
> <BCLConfClusterSize>
1

> <ConfClashScore>
0 

> <ConfOneFourInteractionScore>
-0.974251 

> <ConfScore>
-0.175395 

> <ConfScorePBest>
0.00612499 

> <ConfTolerance>
0.274011 

> <RosettaParamsInstructions>
M  ROOT 3
M  POLY_N_BB 3
M  POLY_CA_BB 4
M  POLY_C_BB 2
M  POLY_O_BB 5
M  POLY_IGNORE 9 10 11 12 13 14 15 16 17 18 
M  POLY_UPPER 6
M  POLY_LOWER 8
M  POLY_CHG 0
M  POLY_PROPERTIES ALPHA_AA L_AA PROTEIN AROMATIC POLYMER 
M  END

$$$$



 32 32  0  0  0  0  0  0  0  0999 V2000
   -2.6655    1.5823    2.4756 H   0  0  0  1  0  0  0  0  0  0  0  0
   -0.7393    0.7150    2.6173 C   0  0  0  1  0  0  0  0  0  0  0  0
   -1.5007    2.7636    3.7100 N   0  0  0  1  0  0  0  0  0  0  0  0
   -1.6550    1.9306    2.5268 C   0  0  0  1  0  0  0  0  0  0  0  0
    0.4171    0.8200    2.9917 O   0  0  0  1  0  0  0  0  0  0  0  0
   -1.2862   -0.4514    2.2631 N   0  0  0  1  0  0  0  0  0  0  0  0
   -0.6535    3.2440    3.8186 H   0  0  0  1  0  0  0  0  0  0  0  0
   -2.4272    2.9229    4.6595 C   0  0  0  1  0  0  0  0  0  0  0  0
   -0.5125   -1.6816    2.1875 C   0  0  0  1  0  0  0  0  0  0  0  0
   -2.0656    3.8798    5.7787 C   0  0  0  1  0  0  0  0  0  0  0  0
   -3.5095    2.3393    4.6435 O   0  0  0  1  0  0  0  0  0  0  0  0
   -2.2416   -0.4794    2.0468 H   0  0  0  1  0  0  0  0  0  0  0  0
   -0.1589   -1.9418    3.1632 H   0  0  0  1  0  0  0  0  0  0  0  0
    0.3215   -1.5385    1.5326 H   0  0  0  1  0  0  0  0  0  0  0  0
   -1.1313   -2.4692    1.8109 H   0  0  0  1  0  0  0  0  0  0  0  0
   -1.8879    4.8537    5.3726 H   0  0  0  1  0  0  0  0  0  0  0  0
   -1.1821    3.5330    6.2727 H   0  0  0  1  0  0  0  0  0  0  0  0
   -2.8717    3.9281    6.4807 H   0  0  0  1  0  0  0  0  0  0  0  0
   -1.5890    7.5187    0.7252 F   0  0  0  1  0  0  0  0  0  0  0  0
   -2.2671    6.3599    0.8318 C   0  0  0  1  0  0  0  0  0  0  0  0
   -1.5418    5.1958    1.0325 C   0  0  0  1  0  0  0  0  0  0  0  0
   -2.1967    3.9836    1.1422 C   0  0  0  1  0  0  0  0  0  0  0  0
   -3.5793    3.9328    1.0569 C   0  0  0  1  0  0  0  0  0  0  0  0
   -4.3026    5.0934    0.8567 C   0  0  0  1  0  0  0  0  0  0  0  0
   -3.6456    6.3091    0.7467 C   0  0  0  1  0  0  0  0  0  0  0  0
   -1.3643    2.7284    1.2562 C   0  0  0  1  0  0  0  0  0  0  0  0
   -0.5048    5.2345    1.1006 H   0  0  0  1  0  0  0  0  0  0  0  0
   -4.0724    3.0212    1.1434 H   0  0  0  1  0  0  0  0  0  0  0  0
   -5.3397    5.0547    0.7887 H   0  0  0  1  0  0  0  0  0  0  0  0
   -4.1901    7.1830    0.6001 H   0  0  0  1  0  0  0  0  0  0  0  0
   -1.5681    2.1066    0.4096 H   0  0  0  1  0  0  0  0  0  0  0  0
   -0.3305    3.0041    1.2563 H   0  0  0  1  0  0  0  0  0  0  0  0
  1  4  1  0  0  0  0
  2  4  1  0  0  0  0
  2  5  2  0  0  0  0
  2  6  1  0  0  0  0
  3  4  1  0  0  0  0
  3  7  1  0  0  0  0
  3  8  1  0  0  0  0
  4 26  1  0  0  0  0
  6  9  1  0  0  0  0
  6 12  1  0  0  0  0
  8 10  1  0  0  0  0
  8 11  2  0  0  0  0
  9 13  1  0  0  0  0
  9 14  1  0  0  0  0
  9 15  1  0  0  0  0
 10 16  1  0  0  0  0
 10 17  1  0  0  0  0
 10 18  1  0  0  0  0
 19 20  1  0  0  0  0
 20 21  4  0  0  0  0
 20 25  4  0  0  0  0
 21 22  4  0  0  0  0
 21 27  1  0  0  0  0
 22 23  4  0  0  0  0
 22 26  1  0  0  0  0
 23 24  4  0  0  0  0
 23 28  1  0  0  0  0
 24 25  4  0  0  0  0
 24 29  1  0  0  0  0
 25 30  1  0  0  0  0
 26 31  1  0  0  0  0
 26 32  1  0  0  0  0
M  END
> <BCLConfClusterSize>
1

> <ConfClashScore>
0 

> <ConfOneFourInteractionScore>
-0.985807 

> <ConfScore>
-0.163936 

> <ConfScorePBest>
0.00609651 

> <ConfTolerance>
0.293292 

> <RosettaParamsInstructions>
M  ROOT 3
M  POLY_N_BB 3
M  POLY_CA_BB 4
M  POLY_C_BB 2
M  POLY_O_BB 5
M  POLY_IGNORE 9 10 11 12 13 14 15 16 17 18 
M  POLY_UPPER 6
M  POLY_LOWER 8
M  POLY_CHG 0
M  POLY_PROPERTIES ALPHA_AA L_AA PROTEIN AROMATIC POLYMER 
M  END

$$$$



 32 32  0  0  0  0  0  0  0  0999 V2000
   -2.2884    2.3836    3.2285 H   0  0  0  1  0  0  0  0  0  0  0  0
   -0.5160    1.3112    3.3391 C   0  0  0  1  0  0  0  0  0  0  0  0
   -0.8182    3.7642    3.5700 N   0  0  0  1  0  0  0  0  0  0  0  0
   -1.2848    2.5390    2.8913 C   0  0  0  1  0  0  0  0  0  0  0  0
   -0.7218    0.2178    2.8384 O   0  0  0  1  0  0  0  0  0  0  0  0
    0.3906    1.5122    4.3085 N   0  0  0  1  0  0  0  0  0  0  0  0
   -0.0935    4.2835    3.1631 H   0  0  0  1  0  0  0  0  0  0  0  0
   -1.3496    4.1896    4.7197 C   0  0  0  1  0  0  0  0  0  0  0  0
    1.1555    0.4222    4.8958 C   0  0  0  1  0  0  0  0  0  0  0  0
   -0.7167    5.4306    5.3184 C   0  0  0  1  0  0  0  0  0  0  0  0
   -2.2843    3.6285    5.2673 O   0  0  0  1  0  0  0  0  0  0  0  0
    0.5426    2.4247    4.6321 H   0  0  0  1  0  0  0  0  0  0  0  0
    1.3603    0.6423    5.9226 H   0  0  0  1  0  0  0  0  0  0  0  0
    2.0775    0.3075    4.3651 H   0  0  0  1  0  0  0  0  0  0  0  0
    0.5910   -0.4845    4.8313 H   0  0  0  1  0  0  0  0  0  0  0  0
   -1.4532    6.2023    5.4020 H   0  0  0  1  0  0  0  0  0  0  0  0
    0.0796    5.7648    4.6867 H   0  0  0  1  0  0  0  0  0  0  0  0
   -0.3299    5.2005    6.2892 H   0  0  0  1  0  0  0  0  0  0  0  0
   -1.6223    7.5409    0.7322 F   0  0  0  1  0  0  0  0  0  0  0  0
   -2.2607    6.3591    0.8306 C   0  0  0  1  0  0  0  0  0  0  0  0
   -1.5343    5.1910    1.0018 C   0  0  0  1  0  0  0  0  0  0  0  0
   -2.1890    3.9776    1.0975 C   0  0  0  1  0  0  0  0  0  0  0  0
   -3.5726    3.9293    1.0276 C   0  0  0  1  0  0  0  0  0  0  0  0
   -4.2971    5.0939    0.8569 C   0  0  0  1  0  0  0  0  0  0  0  0
   -3.6402    6.3109    0.7610 C   0  0  0  1  0  0  0  0  0  0  0  0
   -1.3947    2.7231    1.3745 C   0  0  0  1  0  0  0  0  0  0  0  0
   -0.4965    5.2276    1.0583 H   0  0  0  1  0  0  0  0  0  0  0  0
   -4.0655    3.0168    1.1036 H   0  0  0  1  0  0  0  0  0  0  0  0
   -5.3349    5.0572    0.8005 H   0  0  0  1  0  0  0  0  0  0  0  0
   -4.1855    7.1877    0.6365 H   0  0  0  1  0  0  0  0  0  0  0  0
   -1.8922    1.8792    0.9442 H   0  0  0  1  0  0  0  0  0  0  0  0
   -0.4164    2.8152    0.9509 H   0  0  0  1  0  0  0  0  0  0  0  0
  1  4  1  0  0  0  0
  2  4  1  0  0  0  0
  2  5  2  0  0  0  0
  2  6  1  0  0  0  0
  3  4  1  0  0  0  0
  3  7  1  0  0  0  0
  3  8  1  0  0  0  0
  4 26  1  0  0  0  0
  6  9  1  0  0  0  0
  6 12  1  0  0  0  0
  8 10  1  0  0  0  0
  8 11  2  0  0  0  0
  9 13  1  0  0  0  0
  9 14  1  0  0  0  0
  9 15  1  0  0  0  0
 10 16  1  0  0  0  0
 10 17  1  0  0  0  0
 10 18  1  0  0  0  0
 19 20  1  0  0  0  0
 20 21  4  0  0  0  0
 20 25  4  0  0  0  0
 21 22  4  0  0  0  0
 21 27  1  0  0  0  0
 22 23  4  0  0  0  0
 22 26  1  0  0  0  0
 23 24  4  0  0  0  0
 23 28  1  0  0  0  0
 24 25  4  0  0  0  0
 24 29  1  0  0  0  0
 25 30  1  0  0  0  0
 26 31  1  0  0  0  0
 26 32  1  0  0  0  0
M  END
> <BCLConfClusterSize>
1

> <ConfClashScore>
0 

> <ConfOneFourInteractionScore>
-0.94165 

> <ConfScore>
-0.16324 

> <ConfScorePBest>
0.00606803 

> <ConfTolerance>
0.330257 

> <RosettaParamsInstructions>
M  ROOT 3
M  POLY_N_BB 3
M  POLY_CA_BB 4
M  POLY_C_BB 2
M  POLY_O_BB 5
M  POLY_IGNORE 9 10 11 12 13 14 15 16 17 18 
M  POLY_UPPER 6
M  POLY_LOWER 8
M  POLY_CHG 0
M  POLY_PROPERTIES ALPHA_AA L_AA PROTEIN AROMATIC POLYMER 
M  END

$$$$



 32 32  0  0  0  0  0  0  0  0999 V2000
   -2.7413    1.3746    2.2108 H   0  0  0  1  0  0  0  0  0  0  0  0
   -0.8058    0.6695    2.6352 C   0  0  0  1  0  0  0  0  0  0  0  0
   -1.9661    2.5928    3.6761 N   0  0  0  1  0  0  0  0  0  0  0  0
   -1.7962    1.8089    2.4617 C   0  0  0  1  0  0  0  0  0  0  0  0
   -0.8913   -0.3486    1.9537 O   0  0  0  1  0  0  0  0  0  0  0  0
    0.1582    0.8090    3.5496 N   0  0  0  1  0  0  0  0  0  0  0  0
   -1.9873    3.5684    3.5863 H   0  0  0  1  0  0  0  0  0  0  0  0
   -2.0967    2.0775    4.9161 C   0  0  0  1  0  0  0  0  0  0  0  0
    1.1488   -0.2275    3.7993 C   0  0  0  1  0  0  0  0  0  0  0  0
   -2.2466    3.0418    6.0766 C   0  0  0  1  0  0  0  0  0  0  0  0
   -2.0944    0.8614    5.1024 O   0  0  0  1  0  0  0  0  0  0  0  0
    0.1998    1.6382    4.0704 H   0  0  0  1  0  0  0  0  0  0  0  0
    1.1156   -0.5124    4.8301 H   0  0  0  1  0  0  0  0  0  0  0  0
    2.1232    0.1467    3.5641 H   0  0  0  1  0  0  0  0  0  0  0  0
    0.9358   -1.0789    3.1871 H   0  0  0  1  0  0  0  0  0  0  0  0
   -3.0732    3.6960    5.8929 H   0  0  0  1  0  0  0  0  0  0  0  0
   -1.3513    3.6187    6.1786 H   0  0  0  1  0  0  0  0  0  0  0  0
   -2.4213    2.4911    6.9773 H   0  0  0  1  0  0  0  0  0  0  0  0
   -1.6228    7.5417    0.7261 F   0  0  0  1  0  0  0  0  0  0  0  0
   -2.2608    6.3603    0.8314 C   0  0  0  1  0  0  0  0  0  0  0  0
   -1.5345    5.1943    1.0172 C   0  0  0  1  0  0  0  0  0  0  0  0
   -2.1888    3.9813    1.1199 C   0  0  0  1  0  0  0  0  0  0  0  0
   -3.5719    3.9313    1.0424 C   0  0  0  1  0  0  0  0  0  0  0  0
   -4.2963    5.0937    0.8570 C   0  0  0  1  0  0  0  0  0  0  0  0
   -3.6399    6.3103    0.7541 C   0  0  0  1  0  0  0  0  0  0  0  0
   -1.3975    2.7098    1.3166 C   0  0  0  1  0  0  0  0  0  0  0  0
   -0.4971    5.2324    1.0794 H   0  0  0  1  0  0  0  0  0  0  0  0
   -4.0646    3.0190    1.1236 H   0  0  0  1  0  0  0  0  0  0  0  0
   -5.3338    5.0556    0.7949 H   0  0  0  1  0  0  0  0  0  0  0  0
   -4.1852    7.1855    0.6187 H   0  0  0  1  0  0  0  0  0  0  0  0
   -1.4807    2.1384    0.4158 H   0  0  0  1  0  0  0  0  0  0  0  0
   -0.3760    2.9889    1.4694 H   0  0  0  1  0  0  0  0  0  0  0  0
  1  4  1  0  0  0  0
  2  4  1  0  0  0  0
  2  5  2  0  0  0  0
  2  6  1  0  0  0  0
  3  4  1  0  0  0  0
  3  7  1  0  0  0  0
  3  8  1  0  0  0  0
  4 26  1  0  0  0  0
  6  9  1  0  0  0  0
  6 12  1  0  0  0  0
  8 10  1  0  0  0  0
  8 11  2  0  0  0  0
  9 13  1  0  0  0  0
  9 14  1  0  0  0  0
  9 15  1  0  0  0  0
 10 16  1  0  0  0  0
 10 17  1  0  0  0  0
 10 18  1  0  0  0  0
 19 20  1  0  0  0  0
 20 21  4  0  0  0  0
 20 25  4  0  0  0  0
 21 22  4  0  0  0  0
 21 27  1  0  0  0  0
 22 23  4  0  0  0  0
 22 26  1  0  0  0  0
 23 24  4  0  0  0  0
 23 28  1  0  0  0  0
 24 25  4  0  0  0  0
 24 29  1  0  0  0  0
 25 30  1  0  0  0  0
 26 31  1  0  0  0  0
 26 32  1  0  0  0  0
M  END
> <BCLConfClusterSize>
1

> <ConfClashScore>
0 

> <ConfOneFourInteractionScore>
-0.960318 

> <ConfScore>
-0.159491 

> <ConfScorePBest>
0.00603955 

> <ConfTolerance>
0.54347 

> <RosettaParamsInstructions>
M  ROOT 3
M  POLY_N_BB 3
M  POLY_CA_BB 4
M  POLY_C_BB 2
M  POLY_O_BB 5
M  POLY_IGNORE 9 10 11 12 13 14 15 16 17 18 
M  POLY_UPPER 6
M  POLY_LOWER 8
M  POLY_CHG 0
M  POLY_PROPERTIES ALPHA_AA L_AA PROTEIN AROMATIC POLYMER 
M  END

$$$$



 32 32  0  0  0  0  0  0  0  0999 V2000
    0.4198    3.3550    0.4192 H   0  0  0  1  0  0  0  0  0  0  0  0
    0.4977    1.2344    0.4753 C   0  0  0  1  0  0  0  0  0  0  0  0
   -0.7835    2.5488   -1.0620 N   0  0  0  1  0  0  0  0  0  0  0  0
   -0.2664    2.5432    0.2970 C   0  0  0  1  0  0  0  0  0  0  0  0
    0.2492    0.2502   -0.2199 O   0  0  0  1  0  0  0  0  0  0  0  0
    1.4431    1.2361    1.4283 N   0  0  0  1  0  0  0  0  0  0  0  0
   -1.4093    1.8518   -1.3500 H   0  0  0  1  0  0  0  0  0  0  0  0
   -0.4039    3.5101   -1.9263 C   0  0  0  1  0  0  0  0  0  0  0  0
    2.2672    0.0697    1.7081 C   0  0  0  1  0  0  0  0  0  0  0  0
   -1.0393    3.3828   -3.2971 C   0  0  0  1  0  0  0  0  0  0  0  0
    0.3815    4.4194   -1.6615 O   0  0  0  1  0  0  0  0  0  0  0  0
    1.5833    2.0513    1.9540 H   0  0  0  1  0  0  0  0  0  0  0  0
    2.5708   -0.3823    0.7870 H   0  0  0  1  0  0  0  0  0  0  0  0
    1.7034   -0.6355    2.2824 H   0  0  0  1  0  0  0  0  0  0  0  0
    3.1332    0.3693    2.2605 H   0  0  0  1  0  0  0  0  0  0  0  0
   -2.0543    3.0609   -3.1918 H   0  0  0  1  0  0  0  0  0  0  0  0
   -0.4963    2.6656   -3.8764 H   0  0  0  1  0  0  0  0  0  0  0  0
   -1.0158    4.3319   -3.7905 H   0  0  0  1  0  0  0  0  0  0  0  0
   -1.6228    7.5417    0.7261 F   0  0  0  1  0  0  0  0  0  0  0  0
   -2.2608    6.3603    0.8314 C   0  0  0  1  0  0  0  0  0  0  0  0
   -1.5345    5.1943    1.0172 C   0  0  0  1  0  0  0  0  0  0  0  0
   -2.1888    3.9813    1.1199 C   0  0  0  1  0  0  0  0  0  0  0  0
   -3.5719    3.9313    1.0424 C   0  0  0  1  0  0  0  0  0  0  0  0
   -4.2963    5.0937    0.8570 C   0  0  0  1  0  0  0  0  0  0  0  0
   -3.6399    6.3103    0.7541 C   0  0  0  1  0  0  0  0  0  0  0  0
   -1.3975    2.7098    1.3166 C   0  0  0  1  0  0  0  0  0  0  0  0
   -0.4971    5.2324    1.0794 H   0  0  0  1  0  0  0  0  0  0  0  0
   -4.0646    3.0190    1.1236 H   0  0  0  1  0  0  0  0  0  0  0  0
   -5.3338    5.0556    0.7949 H   0  0  0  1  0  0  0  0  0  0  0  0
   -4.1852    7.1855    0.6187 H   0  0  0  1  0  0  0  0  0  0  0  0
   -0.9721    2.7218    2.2983 H   0  0  0  1  0  0  0  0  0  0  0  0
   -2.0632    1.8770    1.2259 H   0  0  0  1  0  0  0  0  0  0  0  0
  1  4  1  0  0  0  0
  2  4  1  0  0  0  0
  2  5  2  0  0  0  0
  2  6  1  0  0  0  0
  3  4  1  0  0  0  0
  3  7  1  0  0  0  0
  3  8  1  0  0  0  0
  4 26  1  0  0  0  0
  6  9  1  0  0  0  0
  6 12  1  0  0  0  0
  8 10  1  0  0  0  0
  8 11  2  0  0  0  0
  9 13  1  0  0  0  0
  9 14  1  0  0  0  0
  9 15  1  0  0  0  0
 10 16  1  0  0  0  0
 10 17  1  0  0  0  0
 10 18  1  0  0  0  0
 19 20  1  0  0  0  0
 20 21  4  0  0  0  0
 20 25  4  0  0  0  0
 21 22  4  0  0  0  0
 21 27  1  0  0  0  0
 22 23  4  0  0  0  0
 22 26  1  0  0  0  0
 23 24  4  0  0  0  0
 23 28  1  0  0  0  0
 24 25  4  0  0  0  0
 24 29  1  0  0  0  0
 25 30  1  0  0  0  0
 26 31  1  0  0  0  0
 26 32  1  0  0  0  0
M  END
> <BCLConfClusterSize>
1

> <ConfClashScore>
0 

> <ConfOneFourInteractionScore>
-0.992391 

> <ConfScore>
-0.157543 

> <ConfScorePBest>
0.00601107 

> <ConfTolerance>
0.363339 

> <RosettaParamsInstructions>
M  ROOT 3
M  POLY_N_BB 3
M  POLY_CA_BB 4
M  POLY_C_BB 2
M  POLY_O_BB 5
M  POLY_IGNORE 9 10 11 12 13 14 15 16 17 18 
M  POLY_UPPER 6
M  POLY_LOWER 8
M  POLY_CHG 0
M  POLY_PROPERTIES ALPHA_AA L_AA PROTEIN AROMATIC POLYMER 
M  END

$$$$



 32 32  0  0  0  0  0  0  0  0999 V2000
   -0.8016    2.4506   -0.7138 H   0  0  0  1  0  0  0  0  0  0  0  0
   -0.2523    0.6978    0.3583 C   0  0  0  1  0  0  0  0  0  0  0  0
   -2.4996    1.3207   -0.2918 N   0  0  0  1  0  0  0  0  0  0  0  0
   -1.1969    1.8579    0.0846 C   0  0  0  1  0  0  0  0  0  0  0  0
   -0.6301   -0.3030    0.9617 O   0  0  0  1  0  0  0  0  0  0  0  0
    0.9950    0.8449   -0.0974 N   0  0  0  1  0  0  0  0  0  0  0  0
   -3.1403    1.1403    0.4275 H   0  0  0  1  0  0  0  0  0  0  0  0
   -2.8846    1.0564   -1.5413 C   0  0  0  1  0  0  0  0  0  0  0  0
    2.0276   -0.1557    0.1268 C   0  0  0  1  0  0  0  0  0  0  0  0
   -4.2151    0.3174   -1.6659 C   0  0  0  1  0  0  0  0  0  0  0  0
   -2.2045    1.3090   -2.5349 O   0  0  0  1  0  0  0  0  0  0  0  0
    1.2224    1.6548   -0.6001 H   0  0  0  1  0  0  0  0  0  0  0  0
    2.9622    0.3309    0.3130 H   0  0  0  1  0  0  0  0  0  0  0  0
    2.1158   -0.7772   -0.7398 H   0  0  0  1  0  0  0  0  0  0  0  0
    1.7641   -0.7567    0.9720 H   0  0  0  1  0  0  0  0  0  0  0  0
   -4.8717    0.8694   -2.3055 H   0  0  0  1  0  0  0  0  0  0  0  0
   -4.6601    0.2189   -0.6979 H   0  0  0  1  0  0  0  0  0  0  0  0
   -4.0458   -0.6538   -2.0817 H   0  0  0  1  0  0  0  0  0  0  0  0
   -1.6190    7.5350    0.7271 F   0  0  0  1  0  0  0  0  0  0  0  0
   -2.2609    6.3557    0.8319 C   0  0  0  1  0  0  0  0  0  0  0  0
   -1.5384    5.1873    1.0178 C   0  0  0  1  0  0  0  0  0  0  0  0
   -2.1967    3.9764    1.1200 C   0  0  0  1  0  0  0  0  0  0  0  0
   -3.5799    3.9309    1.0419 C   0  0  0  1  0  0  0  0  0  0  0  0
   -4.3005    5.0957    0.8565 C   0  0  0  1  0  0  0  0  0  0  0  0
   -3.6401    6.3101    0.7541 C   0  0  0  1  0  0  0  0  0  0  0  0
   -1.3608    2.7337    1.3160 C   0  0  0  1  0  0  0  0  0  0  0  0
   -0.5009    5.2220    1.0804 H   0  0  0  1  0  0  0  0  0  0  0  0
   -4.0756    3.0202    1.1228 H   0  0  0  1  0  0  0  0  0  0  0  0
   -5.3380    5.0610    0.7940 H   0  0  0  1  0  0  0  0  0  0  0  0
   -4.1824    7.1871    0.6186 H   0  0  0  1  0  0  0  0  0  0  0  0
   -0.3865    3.0384    1.6364 H   0  0  0  1  0  0  0  0  0  0  0  0
   -1.8205    2.1441    2.0815 H   0  0  0  1  0  0  0  0  0  0  0  0
  1  4  1  0  0  0  0
  2  4  1  0  0  0  0
  2  5  2  0  0  0  0
  2  6  1  0  0  0  0
  3  4  1  0  0  0  0
  3  7  1  0  0  0  0
  3  8  1  0  0  0  0
  4 26  1  0  0  0  0
  6  9  1  0  0  0  0
  6 12  1  0  0  0  0
  8 10  1  0  0  0  0
  8 11  2  0  0  0  0
  9 13  1  0  0  0  0
  9 14  1  0  0  0  0
  9 15  1  0  0  0  0
 10 16  1  0  0  0  0
 10 17  1  0  0  0  0
 10 18  1  0  0  0  0
 19 20  1  0  0  0  0
 20 21  4  0  0  0  0
 20 25  4  0  0  0  0
 21 22  4  0  0  0  0
 21 27  1  0  0  0  0
 22 23  4  0  0  0  0
 22 26  1  0  0  0  0
 23 24  4  0  0  0  0
 23 28  1  0  0  0  0
 24 25  4  0  0  0  0
 24 29  1  0  0  0  0
 25 30  1  0  0  0  0
 26 31  1  0  0  0  0
 26 32  1  0  0  0  0
M  END
> <BCLConfClusterSize>
1

> <ConfClashScore>
0 

> <ConfOneFourInteractionScore>
-0.981931 

> <ConfScore>
-0.154034 

> <ConfScorePBest>
0.00598259 

> <ConfTolerance>
0.350102 

> <RosettaParamsInstructions>
M  ROOT 3
M  POLY_N_BB 3
M  POLY_CA_BB 4
M  POLY_C_BB 2
M  POLY_O_BB 5
M  POLY_IGNORE 9 10 11 12 13 14 15 16 17 18 
M  POLY_UPPER 6
M  POLY_LOWER 8
M  POLY_CHG 0
M  POLY_PROPERTIES ALPHA_AA L_AA PROTEIN AROMATIC POLYMER 
M  END

$$$$



 32 32  0  0  0  0  0  0  0  0999 V2000
    0.3742    3.2855    0.2752 H   0  0  0  1  0  0  0  0  0  0  0  0
    0.3722    1.1710    0.4927 C   0  0  0  1  0  0  0  0  0  0  0  0
   -0.9746    2.4818   -1.0835 N   0  0  0  1  0  0  0  0  0  0  0  0
   -0.3418    2.4918    0.2270 C   0  0  0  1  0  0  0  0  0  0  0  0
    1.3127    1.1102    1.2831 O   0  0  0  1  0  0  0  0  0  0  0  0
   -0.0542    0.0846   -0.1576 N   0  0  0  1  0  0  0  0  0  0  0  0
   -1.8859    2.1309   -1.1660 H   0  0  0  1  0  0  0  0  0  0  0  0
   -0.3512    2.9382   -2.1873 C   0  0  0  1  0  0  0  0  0  0  0  0
    0.5838   -1.2143   -0.0032 C   0  0  0  1  0  0  0  0  0  0  0  0
   -1.1944    2.8304   -3.4581 C   0  0  0  1  0  0  0  0  0  0  0  0
    0.7874    3.4038   -2.2064 O   0  0  0  1  0  0  0  0  0  0  0  0
   -0.8233    0.1651   -0.7596 H   0  0  0  1  0  0  0  0  0  0  0  0
    0.5090   -1.7603   -0.9203 H   0  0  0  1  0  0  0  0  0  0  0  0
    0.0964   -1.7602    0.7774 H   0  0  0  1  0  0  0  0  0  0  0  0
    1.6151   -1.0773    0.2470 H   0  0  0  1  0  0  0  0  0  0  0  0
   -1.5406    1.8245   -3.5728 H   0  0  0  1  0  0  0  0  0  0  0  0
   -0.5989    3.1011   -4.3049 H   0  0  0  1  0  0  0  0  0  0  0  0
   -2.0337    3.4902   -3.3861 H   0  0  0  1  0  0  0  0  0  0  0  0
   -1.5924    7.5248    0.7300 F   0  0  0  1  0  0  0  0  0  0  0  0
   -2.2671    6.3635    0.8306 C   0  0  0  1  0  0  0  0  0  0  0  0
   -1.5379    5.1994    1.0164 C   0  0  0  1  0  0  0  0  0  0  0  0
   -2.1893    3.9848    1.1194 C   0  0  0  1  0  0  0  0  0  0  0  0
   -3.5723    3.9314    1.0423 C   0  0  0  1  0  0  0  0  0  0  0  0
   -4.2996    5.0921    0.8570 C   0  0  0  1  0  0  0  0  0  0  0  0
   -3.6461    6.3102    0.7537 C   0  0  0  1  0  0  0  0  0  0  0  0
   -1.3949    2.7152    1.3161 C   0  0  0  1  0  0  0  0  0  0  0  0
   -0.5006    5.2399    1.0783 H   0  0  0  1  0  0  0  0  0  0  0  0
   -4.0627    3.0180    1.1239 H   0  0  0  1  0  0  0  0  0  0  0  0
   -5.3369    5.0515    0.7952 H   0  0  0  1  0  0  0  0  0  0  0  0
   -4.1935    7.1841    0.6183 H   0  0  0  1  0  0  0  0  0  0  0  0
   -0.8997    2.7666    2.2632 H   0  0  0  1  0  0  0  0  0  0  0  0
   -2.0712    1.8861    1.3111 H   0  0  0  1  0  0  0  0  0  0  0  0
  1  4  1  0  0  0  0
  2  4  1  0  0  0  0
  2  5  2  0  0  0  0
  2  6  1  0  0  0  0
  3  4  1  0  0  0  0
  3  7  1  0  0  0  0
  3  8  1  0  0  0  0
  4 26  1  0  0  0  0
  6  9  1  0  0  0  0
  6 12  1  0  0  0  0
  8 10  1  0  0  0  0
  8 11  2  0  0  0  0
  9 13  1  0  0  0  0
  9 14  1  0  0  0  0
  9 15  1  0  0  0  0
 10 16  1  0  0  0  0
 10 17  1  0  0  0  0
 10 18  1  0  0  0  0
 19 20  1  0  0  0  0
 20 21  4  0  0  0  0
 20 25  4  0  0  0  0
 21 22  4  0  0  0  0
 21 27  1  0  0  0  0
 22 23  4  0  0  0  0
 22 26  1  0  0  0  0
 23 24  4  0  0  0  0
 23 28  1  0  0  0  0
 24 25  4  0  0  0  0
 24 29  1  0  0  0  0
 25 30  1  0  0  0  0
 26 31  1  0  0  0  0
 26 32  1  0  0  0  0
M  END
> <BCLConfClusterSize>
1

> <ConfClashScore>
0 

> <ConfOneFourInteractionScore>
-0.960318 

> <ConfScore>
-0.154028 

> <ConfScorePBest>
0.00595411 

> <ConfTolerance>
0.302057 

> <RosettaParamsInstructions>
M  ROOT 3
M  POLY_N_BB 3
M  POLY_CA_BB 4
M  POLY_C_BB 2
M  POLY_O_BB 5
M  POLY_IGNORE 9 10 11 12 13 14 15 16 17 18 
M  POLY_UPPER 6
M  POLY_LOWER 8
M  POLY_CHG 0
M  POLY_PROPERTIES ALPHA_AA L_AA PROTEIN AROMATIC POLYMER 
M  END

$$$$



 32 32  0  0  0  0  0  0  0  0999 V2000
   -2.8857    1.4026    0.5353 H   0  0  0  1  0  0  0  0  0  0  0  0
   -1.2946    0.2317    1.3477 C   0  0  0  1  0  0  0  0  0  0  0  0
   -2.9634    1.5149    2.6146 N   0  0  0  1  0  0  0  0  0  0  0  0
   -2.2154    1.4525    1.3678 C   0  0  0  1  0  0  0  0  0  0  0  0
   -0.8908   -0.2306    0.2815 O   0  0  0  1  0  0  0  0  0  0  0  0
   -0.9165   -0.2064    2.5590 N   0  0  0  1  0  0  0  0  0  0  0  0
   -2.8476    2.2945    3.1971 H   0  0  0  1  0  0  0  0  0  0  0  0
   -3.8012    0.5480    2.9920 C   0  0  0  1  0  0  0  0  0  0  0  0
   -0.0628   -1.3789    2.6783 C   0  0  0  1  0  0  0  0  0  0  0  0
   -4.5974    0.8214    4.2532 C   0  0  0  1  0  0  0  0  0  0  0  0
   -3.9330   -0.5050    2.3695 O   0  0  0  1  0  0  0  0  0  0  0  0
   -1.2161    0.2643    3.3647 H   0  0  0  1  0  0  0  0  0  0  0  0
    0.9223   -1.1397    2.3360 H   0  0  0  1  0  0  0  0  0  0  0  0
   -0.4635   -2.1735    2.0841 H   0  0  0  1  0  0  0  0  0  0  0  0
   -0.0196   -1.6857    3.7025 H   0  0  0  1  0  0  0  0  0  0  0  0
   -5.0111    1.8072    4.2078 H   0  0  0  1  0  0  0  0  0  0  0  0
   -3.9540    0.7439    5.1047 H   0  0  0  1  0  0  0  0  0  0  0  0
   -5.3888    0.1062    4.3372 H   0  0  0  1  0  0  0  0  0  0  0  0
   -1.6193    7.5356    0.7210 F   0  0  0  1  0  0  0  0  0  0  0  0
   -2.2608    6.3566    0.8327 C   0  0  0  1  0  0  0  0  0  0  0  0
   -1.5384    5.1907    1.0334 C   0  0  0  1  0  0  0  0  0  0  0  0
   -2.1962    3.9801    1.1427 C   0  0  0  1  0  0  0  0  0  0  0  0
   -3.5789    3.9326    1.0569 C   0  0  0  1  0  0  0  0  0  0  0  0
   -4.2994    5.0950    0.8568 C   0  0  0  1  0  0  0  0  0  0  0  0
   -3.6395    6.3091    0.7472 C   0  0  0  1  0  0  0  0  0  0  0  0
   -1.3669    2.7229    1.2566 C   0  0  0  1  0  0  0  0  0  0  0  0
   -0.5013    5.2269    1.1018 H   0  0  0  1  0  0  0  0  0  0  0  0
   -4.0742    3.0222    1.1431 H   0  0  0  1  0  0  0  0  0  0  0  0
   -5.3365    5.0588    0.7884 H   0  0  0  1  0  0  0  0  0  0  0  0
   -4.1818    7.1843    0.6006 H   0  0  0  1  0  0  0  0  0  0  0  0
   -0.7473    2.6437    0.3879 H   0  0  0  1  0  0  0  0  0  0  0  0
   -0.7514    2.7987    2.1286 H   0  0  0  1  0  0  0  0  0  0  0  0
  1  4  1  0  0  0  0
  2  4  1  0  0  0  0
  2  5  2  0  0  0  0
  2  6  1  0  0  0  0
  3  4  1  0  0  0  0
  3  7  1  0  0  0  0
  3  8  1  0  0  0  0
  4 26  1  0  0  0  0
  6  9  1  0  0  0  0
  6 12  1  0  0  0  0
  8 10  1  0  0  0  0
  8 11  2  0  0  0  0
  9 13  1  0  0  0  0
  9 14  1  0  0  0  0
  9 15  1  0  0  0  0
 10 16  1  0  0  0  0
 10 17  1  0  0  0  0
 10 18  1  0  0  0  0
 19 20  1  0  0  0  0
 20 21  4  0  0  0  0
 20 25  4  0  0  0  0
 21 22  4  0  0  0  0
 21 27  1  0  0  0  0
 22 23  4  0  0  0  0
 22 26  1  0  0  0  0
 23 24  4  0  0  0  0
 23 28  1  0  0  0  0
 24 25  4  0  0  0  0
 24 29  1  0  0  0  0
 25 30  1  0  0  0  0
 26 31  1  0  0  0  0
 26 32  1  0  0  0  0
M  END
> <BCLConfClusterSize>
1

> <ConfClashScore>
0 

> <ConfOneFourInteractionScore>
-0.949001 

> <ConfScore>
-0.152818 

> <ConfScorePBest>
0.00592562 

> <ConfTolerance>
0.263276 

> <RosettaParamsInstructions>
M  ROOT 3
M  POLY_N_BB 3
M  POLY_CA_BB 4
M  POLY_C_BB 2
M  POLY_O_BB 5
M  POLY_IGNORE 9 10 11 12 13 14 15 16 17 18 
M  POLY_UPPER 6
M  POLY_LOWER 8
M  POLY_CHG 0
M  POLY_PROPERTIES ALPHA_AA L_AA PROTEIN AROMATIC POLYMER 
M  END

$$$$



 32 32  0  0  0  0  0  0  0  0999 V2000
   -1.9803    2.4376    3.3453 H   0  0  0  1  0  0  0  0  0  0  0  0
   -0.5951    0.9094    2.7962 C   0  0  0  1  0  0  0  0  0  0  0  0
   -0.0445    3.2117    3.2991 N   0  0  0  1  0  0  0  0  0  0  0  0
   -1.0881    2.3519    2.7610 C   0  0  0  1  0  0  0  0  0  0  0  0
    0.4074    0.5552    2.1772 O   0  0  0  1  0  0  0  0  0  0  0  0
   -1.3523    0.0988    3.5524 N   0  0  0  1  0  0  0  0  0  0  0  0
    0.8712    3.1420    2.9571 H   0  0  0  1  0  0  0  0  0  0  0  0
   -0.3351    4.1047    4.2678 C   0  0  0  1  0  0  0  0  0  0  0  0
   -1.0747   -1.3078    3.8015 C   0  0  0  1  0  0  0  0  0  0  0  0
    0.8165    4.8228    4.9441 C   0  0  0  1  0  0  0  0  0  0  0  0
   -1.4993    4.3314    4.5947 O   0  0  0  1  0  0  0  0  0  0  0  0
   -2.1522    0.4833    3.9680 H   0  0  0  1  0  0  0  0  0  0  0  0
   -1.3346   -1.5499    4.8109 H   0  0  0  1  0  0  0  0  0  0  0  0
   -0.0334   -1.4986    3.6461 H   0  0  0  1  0  0  0  0  0  0  0  0
   -1.6520   -1.9093    3.1308 H   0  0  0  1  0  0  0  0  0  0  0  0
    1.7347    4.3270    4.7079 H   0  0  0  1  0  0  0  0  0  0  0  0
    0.6690    4.8139    6.0039 H   0  0  0  1  0  0  0  0  0  0  0  0
    0.8583    5.8344    4.5979 H   0  0  0  1  0  0  0  0  0  0  0  0
   -1.6228    7.5417    0.7261 F   0  0  0  1  0  0  0  0  0  0  0  0
   -2.2608    6.3603    0.8314 C   0  0  0  1  0  0  0  0  0  0  0  0
   -1.5345    5.1943    1.0172 C   0  0  0  1  0  0  0  0  0  0  0  0
   -2.1888    3.9813    1.1199 C   0  0  0  1  0  0  0  0  0  0  0  0
   -3.5719    3.9313    1.0424 C   0  0  0  1  0  0  0  0  0  0  0  0
   -4.2963    5.0937    0.8570 C   0  0  0  1  0  0  0  0  0  0  0  0
   -3.6399    6.3103    0.7541 C   0  0  0  1  0  0  0  0  0  0  0  0
   -1.3975    2.7098    1.3166 C   0  0  0  1  0  0  0  0  0  0  0  0
   -0.4971    5.2324    1.0794 H   0  0  0  1  0  0  0  0  0  0  0  0
   -4.0646    3.0190    1.1236 H   0  0  0  1  0  0  0  0  0  0  0  0
   -5.3338    5.0556    0.7949 H   0  0  0  1  0  0  0  0  0  0  0  0
   -4.1852    7.1855    0.6187 H   0  0  0  1  0  0  0  0  0  0  0  0
   -1.9565    1.9037    0.8892 H   0  0  0  1  0  0  0  0  0  0  0  0
   -0.4685    2.8154    0.7963 H   0  0  0  1  0  0  0  0  0  0  0  0
  1  4  1  0  0  0  0
  2  4  1  0  0  0  0
  2  5  2  0  0  0  0
  2  6  1  0  0  0  0
  3  4  1  0  0  0  0
  3  7  1  0  0  0  0
  3  8  1  0  0  0  0
  4 26  1  0  0  0  0
  6  9  1  0  0  0  0
  6 12  1  0  0  0  0
  8 10  1  0  0  0  0
  8 11  2  0  0  0  0
  9 13  1  0  0  0  0
  9 14  1  0  0  0  0
  9 15  1  0  0  0  0
 10 16  1  0  0  0  0
 10 17  1  0  0  0  0
 10 18  1  0  0  0  0
 19 20  1  0  0  0  0
 20 21  4  0  0  0  0
 20 25  4  0  0  0  0
 21 22  4  0  0  0  0
 21 27  1  0  0  0  0
 22 23  4  0  0  0  0
 22 26  1  0  0  0  0
 23 24  4  0  0  0  0
 23 28  1  0  0  0  0
 24 25  4  0  0  0  0
 24 29  1  0  0  0  0
 25 30  1  0  0  0  0
 26 31  1  0  0  0  0
 26 32  1  0  0  0  0
M  END
> <BCLConfClusterSize>
1

> <ConfClashScore>
0 

> <ConfOneFourInteractionScore>
-0.978947 

> <ConfScore>
-0.152155 

> <ConfScorePBest>
0.00589714 

> <ConfTolerance>
0.412455 

> <RosettaParamsInstructions>
M  ROOT 3
M  POLY_N_BB 3
M  POLY_CA_BB 4
M  POLY_C_BB 2
M  POLY_O_BB 5
M  POLY_IGNORE 9 10 11 12 13 14 15 16 17 18 
M  POLY_UPPER 6
M  POLY_LOWER 8
M  POLY_CHG 0
M  POLY_PROPERTIES ALPHA_AA L_AA PROTEIN AROMATIC POLYMER 
M  END

$$$$



 32 32  0  0  0  0  0  0  0  0999 V2000
    0.3622    3.6359    1.8951 H   0  0  0  1  0  0  0  0  0  0  0  0
    0.7729    1.5679    1.6956 C   0  0  0  1  0  0  0  0  0  0  0  0
    0.4895    3.1821   -0.1181 N   0  0  0  1  0  0  0  0  0  0  0  0
    0.0748    2.8441    1.2353 C   0  0  0  1  0  0  0  0  0  0  0  0
    0.8683    1.2650    2.8710 O   0  0  0  1  0  0  0  0  0  0  0  0
    1.3024    0.7464    0.7764 N   0  0  0  1  0  0  0  0  0  0  0  0
   -0.2138    3.3751   -0.7726 H   0  0  0  1  0  0  0  0  0  0  0  0
    1.7676    3.2495   -0.5389 C   0  0  0  1  0  0  0  0  0  0  0  0
    2.0839   -0.4087    1.1923 C   0  0  0  1  0  0  0  0  0  0  0  0
    1.9071    3.5616   -2.0162 C   0  0  0  1  0  0  0  0  0  0  0  0
    2.7515    3.0795    0.1799 O   0  0  0  1  0  0  0  0  0  0  0  0
    1.1626    0.9245   -0.1771 H   0  0  0  1  0  0  0  0  0  0  0  0
    1.7122   -0.7737    2.1269 H   0  0  0  1  0  0  0  0  0  0  0  0
    3.1093   -0.1240    1.3033 H   0  0  0  1  0  0  0  0  0  0  0  0
    2.0048   -1.1777    0.4524 H   0  0  0  1  0  0  0  0  0  0  0  0
    1.0283    3.2384   -2.5341 H   0  0  0  1  0  0  0  0  0  0  0  0
    2.7608    3.0502   -2.4095 H   0  0  0  1  0  0  0  0  0  0  0  0
    2.0307    4.6163   -2.1476 H   0  0  0  1  0  0  0  0  0  0  0  0
   -1.6268    7.5487    0.7250 F   0  0  0  1  0  0  0  0  0  0  0  0
   -2.2607    6.3650    0.8308 C   0  0  0  1  0  0  0  0  0  0  0  0
   -1.5303    5.2017    1.0166 C   0  0  0  1  0  0  0  0  0  0  0  0
   -2.1803    3.9864    1.1198 C   0  0  0  1  0  0  0  0  0  0  0  0
   -3.5633    3.9316    1.0429 C   0  0  0  1  0  0  0  0  0  0  0  0
   -4.2918    5.0914    0.8576 C   0  0  0  1  0  0  0  0  0  0  0  0
   -3.6396    6.3102    0.7541 C   0  0  0  1  0  0  0  0  0  0  0  0
   -1.4379    2.6859    1.3169 C   0  0  0  1  0  0  0  0  0  0  0  0
   -0.4929    5.2433    1.0783 H   0  0  0  1  0  0  0  0  0  0  0  0
   -4.0527    3.0176    1.1246 H   0  0  0  1  0  0  0  0  0  0  0  0
   -5.3291    5.0497    0.7959 H   0  0  0  1  0  0  0  0  0  0  0  0
   -4.1880    7.1835    0.6187 H   0  0  0  1  0  0  0  0  0  0  0  0
   -1.6878    2.2937    2.2806 H   0  0  0  1  0  0  0  0  0  0  0  0
   -1.7497    1.9975    0.5594 H   0  0  0  1  0  0  0  0  0  0  0  0
  1  4  1  0  0  0  0
  2  4  1  0  0  0  0
  2  5  2  0  0  0  0
  2  6  1  0  0  0  0
  3  4  1  0  0  0  0
  3  7  1  0  0  0  0
  3  8  1  0  0  0  0
  4 26  1  0  0  0  0
  6  9  1  0  0  0  0
  6 12  1  0  0  0  0
  8 10  1  0  0  0  0
  8 11  2  0  0  0  0
  9 13  1  0  0  0  0
  9 14  1  0  0  0  0
  9 15  1  0  0  0  0
 10 16  1  0  0  0  0
 10 17  1  0  0  0  0
 10 18  1  0  0  0  0
 19 20  1  0  0  0  0
 20 21  4  0  0  0  0
 20 25  4  0  0  0  0
 21 22  4  0  0  0  0
 21 27  1  0  0  0  0
 22 23  4  0  0  0  0
 22 26  1  0  0  0  0
 23 24  4  0  0  0  0
 23 28  1  0  0  0  0
 24 25  4  0  0  0  0
 24 29  1  0  0  0  0
 25 30  1  0  0  0  0
 26 31  1  0  0  0  0
 26 32  1  0  0  0  0
M  END
> <BCLConfClusterSize>
1

> <ConfClashScore>
0 

> <ConfOneFourInteractionScore>
-0.949001 

> <ConfScore>
-0.146311 

> <ConfScorePBest>
0.00586866 

> <ConfTolerance>
0.334478 

> <RosettaParamsInstructions>
M  ROOT 3
M  POLY_N_BB 3
M  POLY_CA_BB 4
M  POLY_C_BB 2
M  POLY_O_BB 5
M  POLY_IGNORE 9 10 11 12 13 14 15 16 17 18 
M  POLY_UPPER 6
M  POLY_LOWER 8
M  POLY_CHG 0
M  POLY_PROPERTIES ALPHA_AA L_AA PROTEIN AROMATIC POLYMER 
M  END

$$$$



 32 32  0  0  0  0  0  0  0  0999 V2000
   -1.1197    3.0712    3.3825 H   0  0  0  1  0  0  0  0  0  0  0  0
   -0.0035    1.3439    2.8854 C   0  0  0  1  0  0  0  0  0  0  0  0
    0.5938    3.6578    2.3884 N   0  0  0  1  0  0  0  0  0  0  0  0
   -0.5197    2.7398    2.5609 C   0  0  0  1  0  0  0  0  0  0  0  0
   -0.6622    0.5554    3.5433 O   0  0  0  1  0  0  0  0  0  0  0  0
    1.2151    1.0891    2.3832 N   0  0  0  1  0  0  0  0  0  0  0  0
    0.7663    4.0301    1.4984 H   0  0  0  1  0  0  0  0  0  0  0  0
    1.3914    4.0122    3.4021 C   0  0  0  1  0  0  0  0  0  0  0  0
    1.8585   -0.2086    2.5249 C   0  0  0  1  0  0  0  0  0  0  0  0
    2.6065    4.8300    3.0270 C   0  0  0  1  0  0  0  0  0  0  0  0
    1.1668    3.7018    4.5713 O   0  0  0  1  0  0  0  0  0  0  0  0
    1.6879    1.8016    1.9046 H   0  0  0  1  0  0  0  0  0  0  0  0
    1.5675   -0.6520    3.4542 H   0  0  0  1  0  0  0  0  0  0  0  0
    2.9210   -0.0834    2.5069 H   0  0  0  1  0  0  0  0  0  0  0  0
    1.5601   -0.8444    1.7177 H   0  0  0  1  0  0  0  0  0  0  0  0
    2.2983    5.6993    2.4845 H   0  0  0  1  0  0  0  0  0  0  0  0
    3.2578    4.2408    2.4158 H   0  0  0  1  0  0  0  0  0  0  0  0
    3.1232    5.1287    3.9151 H   0  0  0  1  0  0  0  0  0  0  0  0
   -1.6228    7.5417    0.7261 F   0  0  0  1  0  0  0  0  0  0  0  0
   -2.2608    6.3603    0.8314 C   0  0  0  1  0  0  0  0  0  0  0  0
   -1.5345    5.1943    1.0172 C   0  0  0  1  0  0  0  0  0  0  0  0
   -2.1888    3.9813    1.1199 C   0  0  0  1  0  0  0  0  0  0  0  0
   -3.5719    3.9313    1.0424 C   0  0  0  1  0  0  0  0  0  0  0  0
   -4.2963    5.0937    0.8570 C   0  0  0  1  0  0  0  0  0  0  0  0
   -3.6399    6.3103    0.7541 C   0  0  0  1  0  0  0  0  0  0  0  0
   -1.3975    2.7098    1.3166 C   0  0  0  1  0  0  0  0  0  0  0  0
   -0.4971    5.2324    1.0794 H   0  0  0  1  0  0  0  0  0  0  0  0
   -4.0646    3.0190    1.1236 H   0  0  0  1  0  0  0  0  0  0  0  0
   -5.3338    5.0556    0.7949 H   0  0  0  1  0  0  0  0  0  0  0  0
   -4.1852    7.1855    0.6187 H   0  0  0  1  0  0  0  0  0  0  0  0
   -2.0825    1.8923    1.4026 H   0  0  0  1  0  0  0  0  0  0  0  0
   -0.7713    2.5627    0.4615 H   0  0  0  1  0  0  0  0  0  0  0  0
  1  4  1  0  0  0  0
  2  4  1  0  0  0  0
  2  5  2  0  0  0  0
  2  6  1  0  0  0  0
  3  4  1  0  0  0  0
  3  7  1  0  0  0  0
  3  8  1  0  0  0  0
  4 26  1  0  0  0  0
  6  9  1  0  0  0  0
  6 12  1  0  0  0  0
  8 10  1  0  0  0  0
  8 11  2  0  0  0  0
  9 13  1  0  0  0  0
  9 14  1  0  0  0  0
  9 15  1  0  0  0  0
 10 16  1  0  0  0  0
 10 17  1  0  0  0  0
 10 18  1  0  0  0  0
 19 20  1  0  0  0  0
 20 21  4  0  0  0  0
 20 25  4  0  0  0  0
 21 22  4  0  0  0  0
 21 27  1  0  0  0  0
 22 23  4  0  0  0  0
 22 26  1  0  0  0  0
 23 24  4  0  0  0  0
 23 28  1  0  0  0  0
 24 25  4  0  0  0  0
 24 29  1  0  0  0  0
 25 30  1  0  0  0  0
 26 31  1  0  0  0  0
 26 32  1  0  0  0  0
M  END
> <BCLConfClusterSize>
1

> <ConfClashScore>
0 

> <ConfOneFourInteractionScore>
-0.956443 

> <ConfScore>
-0.145202 

> <ConfScorePBest>
0.00584018 

> <ConfTolerance>
0.402789 

> <RosettaParamsInstructions>
M  ROOT 3
M  POLY_N_BB 3
M  POLY_CA_BB 4
M  POLY_C_BB 2
M  POLY_O_BB 5
M  POLY_IGNORE 9 10 11 12 13 14 15 16 17 18 
M  POLY_UPPER 6
M  POLY_LOWER 8
M  POLY_CHG 0
M  POLY_PROPERTIES ALPHA_AA L_AA PROTEIN AROMATIC POLYMER 
M  END

$$$$



 32 32  0  0  0  0  0  0  0  0999 V2000
   -0.0348    3.5914    2.6508 H   0  0  0  1  0  0  0  0  0  0  0  0
   -1.5194    2.7110    3.8361 C   0  0  0  1  0  0  0  0  0  0  0  0
    0.3304    1.5747    2.6943 N   0  0  0  1  0  0  0  0  0  0  0  0
   -0.6058    2.6868    2.6262 C   0  0  0  1  0  0  0  0  0  0  0  0
   -1.8705    3.7636    4.3433 O   0  0  0  1  0  0  0  0  0  0  0  0
   -1.9060    1.5117    4.2991 N   0  0  0  1  0  0  0  0  0  0  0  0
    0.3691    0.9426    1.9464 H   0  0  0  1  0  0  0  0  0  0  0  0
    1.1573    1.3811    3.7648 C   0  0  0  1  0  0  0  0  0  0  0  0
   -2.6656    1.3621    5.5313 C   0  0  0  1  0  0  0  0  0  0  0  0
    2.0369    0.1697    3.6327 C   0  0  0  1  0  0  0  0  0  0  0  0
    1.1613    2.1335    4.7221 O   0  0  0  1  0  0  0  0  0  0  0  0
   -1.6684    0.7091    3.7895 H   0  0  0  1  0  0  0  0  0  0  0  0
   -2.4632    0.4036    5.9615 H   0  0  0  1  0  0  0  0  0  0  0  0
   -3.7109    1.4434    5.3177 H   0  0  0  1  0  0  0  0  0  0  0  0
   -2.3813    2.1294    6.2207 H   0  0  0  1  0  0  0  0  0  0  0  0
    2.0738   -0.1349    2.6076 H   0  0  0  1  0  0  0  0  0  0  0  0
    1.6389   -0.6262    4.2268 H   0  0  0  1  0  0  0  0  0  0  0  0
    3.0242    0.4077    3.9695 H   0  0  0  1  0  0  0  0  0  0  0  0
   -1.6537    7.5575    0.7223 F   0  0  0  1  0  0  0  0  0  0  0  0
   -2.2545    6.3571    0.8321 C   0  0  0  1  0  0  0  0  0  0  0  0
   -1.5311    5.1894    1.0180 C   0  0  0  1  0  0  0  0  0  0  0  0
   -2.1883    3.9779    1.1203 C   0  0  0  1  0  0  0  0  0  0  0  0
   -3.5715    3.9312    1.0424 C   0  0  0  1  0  0  0  0  0  0  0  0
   -4.2931    5.0954    0.8571 C   0  0  0  1  0  0  0  0  0  0  0  0
   -3.6337    6.3104    0.7545 C   0  0  0  1  0  0  0  0  0  0  0  0
   -1.4001    2.7045    1.3170 C   0  0  0  1  0  0  0  0  0  0  0  0
   -0.4935    5.2249    1.0805 H   0  0  0  1  0  0  0  0  0  0  0  0
   -4.0664    3.0201    1.1234 H   0  0  0  1  0  0  0  0  0  0  0  0
   -5.3306    5.0598    0.7946 H   0  0  0  1  0  0  0  0  0  0  0  0
   -4.1768    7.1869    0.6190 H   0  0  0  1  0  0  0  0  0  0  0  0
   -2.0814    1.8794    1.3209 H   0  0  0  1  0  0  0  0  0  0  0  0
   -0.7154    2.5984    0.5017 H   0  0  0  1  0  0  0  0  0  0  0  0
  1  4  1  0  0  0  0
  2  4  1  0  0  0  0
  2  5  2  0  0  0  0
  2  6  1  0  0  0  0
  3  4  1  0  0  0  0
  3  7  1  0  0  0  0
  3  8  1  0  0  0  0
  4 26  1  0  0  0  0
  6  9  1  0  0  0  0
  6 12  1  0  0  0  0
  8 10  1  0  0  0  0
  8 11  2  0  0  0  0
  9 13  1  0  0  0  0
  9 14  1  0  0  0  0
  9 15  1  0  0  0  0
 10 16  1  0  0  0  0
 10 17  1  0  0  0  0
 10 18  1  0  0  0  0
 19 20  1  0  0  0  0
 20 21  4  0  0  0  0
 20 25  4  0  0  0  0
 21 22  4  0  0  0  0
 21 27  1  0  0  0  0
 22 23  4  0  0  0  0
 22 26  1  0  0  0  0
 23 24  4  0  0  0  0
 23 28  1  0  0  0  0
 24 25  4  0  0  0  0
 24 29  1  0  0  0  0
 25 30  1  0  0  0  0
 26 31  1  0  0  0  0
 26 32  1  0  0  0  0
M  END
> <BCLConfClusterSize>
1

> <ConfClashScore>
0 

> <ConfOneFourInteractionScore>
-0.960318 

> <ConfScore>
-0.13731 

> <ConfScorePBest>
0.0058117 

> <ConfTolerance>
0.396344 

> <RosettaParamsInstructions>
M  ROOT 3
M  POLY_N_BB 3
M  POLY_CA_BB 4
M  POLY_C_BB 2
M  POLY_O_BB 5
M  POLY_IGNORE 9 10 11 12 13 14 15 16 17 18 
M  POLY_UPPER 6
M  POLY_LOWER 8
M  POLY_CHG 0
M  POLY_PROPERTIES ALPHA_AA L_AA PROTEIN AROMATIC POLYMER 
M  END

$$$$



 32 32  0  0  0  0  0  0  0  0999 V2000
   -2.6862    1.8812    2.7605 H   0  0  0  1  0  0  0  0  0  0  0  0
   -0.8667    0.8484    2.9056 C   0  0  0  1  0  0  0  0  0  0  0  0
   -1.3603    3.1263    3.7206 N   0  0  0  1  0  0  0  0  0  0  0  0
   -1.6466    2.1275    2.7017 C   0  0  0  1  0  0  0  0  0  0  0  0
    0.2635    0.8692    3.3913 O   0  0  0  1  0  0  0  0  0  0  0  0
   -1.4410   -0.3021    2.5431 N   0  0  0  1  0  0  0  0  0  0  0  0
   -1.0143    4.0000    3.4425 H   0  0  0  1  0  0  0  0  0  0  0  0
   -1.5571    2.8884    5.0518 C   0  0  0  1  0  0  0  0  0  0  0  0
   -0.7437   -1.5771    2.6196 C   0  0  0  1  0  0  0  0  0  0  0  0
   -1.1726    4.0486    5.9342 C   0  0  0  1  0  0  0  0  0  0  0  0
   -2.0020    1.8315    5.4598 O   0  0  0  1  0  0  0  0  0  0  0  0
   -2.3641   -0.2868    2.2142 H   0  0  0  1  0  0  0  0  0  0  0  0
    0.3061   -1.4185    2.4866 H   0  0  0  1  0  0  0  0  0  0  0  0
   -1.1059   -2.2281    1.8516 H   0  0  0  1  0  0  0  0  0  0  0  0
   -0.9185   -2.0220    3.5769 H   0  0  0  1  0  0  0  0  0  0  0  0
   -0.7430    4.8250    5.3363 H   0  0  0  1  0  0  0  0  0  0  0  0
   -0.4586    3.7221    6.6612 H   0  0  0  1  0  0  0  0  0  0  0  0
   -2.0433    4.4221    6.4314 H   0  0  0  1  0  0  0  0  0  0  0  0
   -1.6228    7.5417    0.7261 F   0  0  0  1  0  0  0  0  0  0  0  0
   -2.2608    6.3603    0.8314 C   0  0  0  1  0  0  0  0  0  0  0  0
   -1.5345    5.1943    1.0172 C   0  0  0  1  0  0  0  0  0  0  0  0
   -2.1888    3.9813    1.1199 C   0  0  0  1  0  0  0  0  0  0  0  0
   -3.5719    3.9313    1.0424 C   0  0  0  1  0  0  0  0  0  0  0  0
   -4.2963    5.0937    0.8570 C   0  0  0  1  0  0  0  0  0  0  0  0
   -3.6399    6.3103    0.7541 C   0  0  0  1  0  0  0  0  0  0  0  0
   -1.3975    2.7098    1.3166 C   0  0  0  1  0  0  0  0  0  0  0  0
   -0.4971    5.2324    1.0794 H   0  0  0  1  0  0  0  0  0  0  0  0
   -4.0646    3.0190    1.1236 H   0  0  0  1  0  0  0  0  0  0  0  0
   -5.3338    5.0556    0.7949 H   0  0  0  1  0  0  0  0  0  0  0  0
   -4.1852    7.1855    0.6187 H   0  0  0  1  0  0  0  0  0  0  0  0
   -1.6928    1.9949    0.5772 H   0  0  0  1  0  0  0  0  0  0  0  0
   -0.3550    2.9252    1.2088 H   0  0  0  1  0  0  0  0  0  0  0  0
  1  4  1  0  0  0  0
  2  4  1  0  0  0  0
  2  5  2  0  0  0  0
  2  6  1  0  0  0  0
  3  4  1  0  0  0  0
  3  7  1  0  0  0  0
  3  8  1  0  0  0  0
  4 26  1  0  0  0  0
  6  9  1  0  0  0  0
  6 12  1  0  0  0  0
  8 10  1  0  0  0  0
  8 11  2  0  0  0  0
  9 13  1  0  0  0  0
  9 14  1  0  0  0  0
  9 15  1  0  0  0  0
 10 16  1  0  0  0  0
 10 17  1  0  0  0  0
 10 18  1  0  0  0  0
 19 20  1  0  0  0  0
 20 21  4  0  0  0  0
 20 25  4  0  0  0  0
 21 22  4  0  0  0  0
 21 27  1  0  0  0  0
 22 23  4  0  0  0  0
 22 26  1  0  0  0  0
 23 24  4  0  0  0  0
 23 28  1  0  0  0  0
 24 25  4  0  0  0  0
 24 29  1  0  0  0  0
 25 30  1  0  0  0  0
 26 31  1  0  0  0  0
 26 32  1  0  0  0  0
M  END
> <BCLConfClusterSize>
1

> <ConfClashScore>
0 

> <ConfOneFourInteractionScore>
-0.985807 

> <ConfScore>
-0.13123 

> <ConfScorePBest>
0.00578322 

> <ConfTolerance>
0.239377 

> <RosettaParamsInstructions>
M  ROOT 3
M  POLY_N_BB 3
M  POLY_CA_BB 4
M  POLY_C_BB 2
M  POLY_O_BB 5
M  POLY_IGNORE 9 10 11 12 13 14 15 16 17 18 
M  POLY_UPPER 6
M  POLY_LOWER 8
M  POLY_CHG 0
M  POLY_PROPERTIES ALPHA_AA L_AA PROTEIN AROMATIC POLYMER 
M  END

$$$$



 32 32  0  0  0  0  0  0  0  0999 V2000
    0.2896    3.2462    0.2805 H   0  0  0  1  0  0  0  0  0  0  0  0
    0.5034    1.2074    0.6862 C   0  0  0  1  0  0  0  0  0  0  0  0
   -0.9242    2.2854   -1.0501 N   0  0  0  1  0  0  0  0  0  0  0  0
   -0.3587    2.3950    0.2851 C   0  0  0  1  0  0  0  0  0  0  0  0
    0.1558    0.0535    0.4385 O   0  0  0  1  0  0  0  0  0  0  0  0
    1.6495    1.5058    1.3182 N   0  0  0  1  0  0  0  0  0  0  0  0
   -1.8920    2.3891   -1.1637 H   0  0  0  1  0  0  0  0  0  0  0  0
   -0.1627    2.0460   -2.1378 C   0  0  0  1  0  0  0  0  0  0  0  0
    2.5377    0.4795    1.8434 C   0  0  0  1  0  0  0  0  0  0  0  0
   -0.8546    1.8764   -3.4612 C   0  0  0  1  0  0  0  0  0  0  0  0
    1.0621    1.9684   -2.0516 O   0  0  0  1  0  0  0  0  0  0  0  0
    1.8967    2.4475    1.4298 H   0  0  0  1  0  0  0  0  0  0  0  0
    1.9709   -0.3969    2.0789 H   0  0  0  1  0  0  0  0  0  0  0  0
    3.0174    0.8422    2.7283 H   0  0  0  1  0  0  0  0  0  0  0  0
    3.2777    0.2388    1.1090 H   0  0  0  1  0  0  0  0  0  0  0  0
   -0.1238    1.7966   -4.2387 H   0  0  0  1  0  0  0  0  0  0  0  0
   -1.4815    2.7234   -3.6468 H   0  0  0  1  0  0  0  0  0  0  0  0
   -1.4511    0.9883   -3.4402 H   0  0  0  1  0  0  0  0  0  0  0  0
   -1.5964    7.5319    0.7289 F   0  0  0  1  0  0  0  0  0  0  0  0
   -2.2670    6.3683    0.8300 C   0  0  0  1  0  0  0  0  0  0  0  0
   -1.5337    5.2067    1.0158 C   0  0  0  1  0  0  0  0  0  0  0  0
   -2.1808    3.9899    1.1194 C   0  0  0  1  0  0  0  0  0  0  0  0
   -3.5636    3.9317    1.0428 C   0  0  0  1  0  0  0  0  0  0  0  0
   -4.2950    5.0898    0.8576 C   0  0  0  1  0  0  0  0  0  0  0  0
   -3.6458    6.3102    0.7537 C   0  0  0  1  0  0  0  0  0  0  0  0
   -1.4352    2.6912    1.3165 C   0  0  0  1  0  0  0  0  0  0  0  0
   -0.4965    5.2509    1.0772 H   0  0  0  1  0  0  0  0  0  0  0  0
   -4.0509    3.0166    1.1248 H   0  0  0  1  0  0  0  0  0  0  0  0
   -5.3322    5.0456    0.7962 H   0  0  0  1  0  0  0  0  0  0  0  0
   -4.1963    7.1821    0.6184 H   0  0  0  1  0  0  0  0  0  0  0  0
   -0.9703    2.7204    2.2798 H   0  0  0  1  0  0  0  0  0  0  0  0
   -2.1480    1.8937    1.2880 H   0  0  0  1  0  0  0  0  0  0  0  0
  1  4  1  0  0  0  0
  2  4  1  0  0  0  0
  2  5  2  0  0  0  0
  2  6  1  0  0  0  0
  3  4  1  0  0  0  0
  3  7  1  0  0  0  0
  3  8  1  0  0  0  0
  4 26  1  0  0  0  0
  6  9  1  0  0  0  0
  6 12  1  0  0  0  0
  8 10  1  0  0  0  0
  8 11  2  0  0  0  0
  9 13  1  0  0  0  0
  9 14  1  0  0  0  0
  9 15  1  0  0  0  0
 10 16  1  0  0  0  0
 10 17  1  0  0  0  0
 10 18  1  0  0  0  0
 19 20  1  0  0  0  0
 20 21  4  0  0  0  0
 20 25  4  0  0  0  0
 21 22  4  0  0  0  0
 21 27  1  0  0  0  0
 22 23  4  0  0  0  0
 22 26  1  0  0  0  0
 23 24  4  0  0  0  0
 23 28  1  0  0  0  0
 24 25  4  0  0  0  0
 24 29  1  0  0  0  0
 25 30  1  0  0  0  0
 26 31  1  0  0  0  0
 26 32  1  0  0  0  0
M  END
> <BCLConfClusterSize>
1

> <ConfClashScore>
0 

> <ConfOneFourInteractionScore>
-0.985807 

> <ConfScore>
-0.116788 

> <ConfScorePBest>
0.00575474 

> <ConfTolerance>
0.268141 

> <RosettaParamsInstructions>
M  ROOT 3
M  POLY_N_BB 3
M  POLY_CA_BB 4
M  POLY_C_BB 2
M  POLY_O_BB 5
M  POLY_IGNORE 9 10 11 12 13 14 15 16 17 18 
M  POLY_UPPER 6
M  POLY_LOWER 8
M  POLY_CHG 0
M  POLY_PROPERTIES ALPHA_AA L_AA PROTEIN AROMATIC POLYMER 
M  END

$$$$



 32 32  0  0  0  0  0  0  0  0999 V2000
   -1.4519    2.2805   -0.7724 H   0  0  0  1  0  0  0  0  0  0  0  0
   -0.5963    0.6136    0.2315 C   0  0  0  1  0  0  0  0  0  0  0  0
   -2.9718    1.2204    0.1645 N   0  0  0  1  0  0  0  0  0  0  0  0
   -1.6145    1.7446    0.1393 C   0  0  0  1  0  0  0  0  0  0  0  0
    0.4758    0.6691   -0.3695 O   0  0  0  1  0  0  0  0  0  0  0  0
   -0.9475   -0.4226    0.9984 N   0  0  0  1  0  0  0  0  0  0  0  0
   -3.5376    1.4097    0.9419 H   0  0  0  1  0  0  0  0  0  0  0  0
   -3.4734    0.4900   -0.8355 C   0  0  0  1  0  0  0  0  0  0  0  0
   -0.0591   -1.5053    1.3939 C   0  0  0  1  0  0  0  0  0  0  0  0
   -4.8228   -0.1495   -0.5717 C   0  0  0  1  0  0  0  0  0  0  0  0
   -2.8922    0.3348   -1.9087 O   0  0  0  1  0  0  0  0  0  0  0  0
   -1.8731   -0.4560    1.3187 H   0  0  0  1  0  0  0  0  0  0  0  0
    0.7687   -1.1060    1.9417 H   0  0  0  1  0  0  0  0  0  0  0  0
    0.3006   -2.0081    0.5206 H   0  0  0  1  0  0  0  0  0  0  0  0
   -0.5936   -2.1977    2.0101 H   0  0  0  1  0  0  0  0  0  0  0  0
   -5.1237    0.0537    0.4348 H   0  0  0  1  0  0  0  0  0  0  0  0
   -4.7501   -1.2073   -0.7153 H   0  0  0  1  0  0  0  0  0  0  0  0
   -5.5467    0.2540   -1.2485 H   0  0  0  1  0  0  0  0  0  0  0  0
   -1.6537    7.5575    0.7223 F   0  0  0  1  0  0  0  0  0  0  0  0
   -2.2545    6.3571    0.8321 C   0  0  0  1  0  0  0  0  0  0  0  0
   -1.5311    5.1894    1.0180 C   0  0  0  1  0  0  0  0  0  0  0  0
   -2.1883    3.9779    1.1203 C   0  0  0  1  0  0  0  0  0  0  0  0
   -3.5715    3.9312    1.0424 C   0  0  0  1  0  0  0  0  0  0  0  0
   -4.2931    5.0954    0.8571 C   0  0  0  1  0  0  0  0  0  0  0  0
   -3.6337    6.3104    0.7545 C   0  0  0  1  0  0  0  0  0  0  0  0
   -1.4001    2.7045    1.3170 C   0  0  0  1  0  0  0  0  0  0  0  0
   -0.4935    5.2249    1.0805 H   0  0  0  1  0  0  0  0  0  0  0  0
   -4.0664    3.0201    1.1234 H   0  0  0  1  0  0  0  0  0  0  0  0
   -5.3306    5.0598    0.7946 H   0  0  0  1  0  0  0  0  0  0  0  0
   -4.1768    7.1869    0.6190 H   0  0  0  1  0  0  0  0  0  0  0  0
   -0.3597    2.9436    1.3899 H   0  0  0  1  0  0  0  0  0  0  0  0
   -1.7214    2.2290    2.2201 H   0  0  0  1  0  0  0  0  0  0  0  0
  1  4  1  0  0  0  0
  2  4  1  0  0  0  0
  2  5  2  0  0  0  0
  2  6  1  0  0  0  0
  3  4  1  0  0  0  0
  3  7  1  0  0  0  0
  3  8  1  0  0  0  0
  4 26  1  0  0  0  0
  6  9  1  0  0  0  0
  6 12  1  0  0  0  0
  8 10  1  0  0  0  0
  8 11  2  0  0  0  0
  9 13  1  0  0  0  0
  9 14  1  0  0  0  0
  9 15  1  0  0  0  0
 10 16  1  0  0  0  0
 10 17  1  0  0  0  0
 10 18  1  0  0  0  0
 19 20  1  0  0  0  0
 20 21  4  0  0  0  0
 20 25  4  0  0  0  0
 21 22  4  0  0  0  0
 21 27  1  0  0  0  0
 22 23  4  0  0  0  0
 22 26  1  0  0  0  0
 23 24  4  0  0  0  0
 23 28  1  0  0  0  0
 24 25  4  0  0  0  0
 24 29  1  0  0  0  0
 25 30  1  0  0  0  0
 26 31  1  0  0  0  0
 26 32  1  0  0  0  0
M  END
> <BCLConfClusterSize>
1

> <ConfClashScore>
0 

> <ConfOneFourInteractionScore>
-0.956443 

> <ConfScore>
-0.11165 

> <ConfScorePBest>
0.00572626 

> <ConfTolerance>
0.276064 

> <RosettaParamsInstructions>
M  ROOT 3
M  POLY_N_BB 3
M  POLY_CA_BB 4
M  POLY_C_BB 2
M  POLY_O_BB 5
M  POLY_IGNORE 9 10 11 12 13 14 15 16 17 18 
M  POLY_UPPER 6
M  POLY_LOWER 8
M  POLY_CHG 0
M  POLY_PROPERTIES ALPHA_AA L_AA PROTEIN AROMATIC POLYMER 
M  END

$$$$



 32 32  0  0  0  0  0  0  0  0999 V2000
   -2.8547    1.9918    2.7192 H   0  0  0  1  0  0  0  0  0  0  0  0
   -1.3374    0.5390    2.5507 C   0  0  0  1  0  0  0  0  0  0  0  0
   -1.2294    2.6823    3.7850 N   0  0  0  1  0  0  0  0  0  0  0  0
   -1.7884    1.9898    2.6294 C   0  0  0  1  0  0  0  0  0  0  0  0
   -0.2576    0.1874    3.0239 O   0  0  0  1  0  0  0  0  0  0  0  0
   -2.1519   -0.3434    1.9506 N   0  0  0  1  0  0  0  0  0  0  0  0
   -0.5549    3.3780    3.6388 H   0  0  0  1  0  0  0  0  0  0  0  0
   -1.6193    2.3905    5.0833 C   0  0  0  1  0  0  0  0  0  0  0  0
   -1.7541   -1.7199    1.6958 C   0  0  0  1  0  0  0  0  0  0  0  0
   -0.9943    3.1477    6.2212 C   0  0  0  1  0  0  0  0  0  0  0  0
   -2.4590    1.5265    5.2588 O   0  0  0  1  0  0  0  0  0  0  0  0
   -3.0454   -0.0505    1.6746 H   0  0  0  1  0  0  0  0  0  0  0  0
   -0.9058   -1.7316    1.0437 H   0  0  0  1  0  0  0  0  0  0  0  0
   -2.5645   -2.2457    1.2358 H   0  0  0  1  0  0  0  0  0  0  0  0
   -1.4995   -2.1943    2.6204 H   0  0  0  1  0  0  0  0  0  0  0  0
    0.0527    2.9310    6.2621 H   0  0  0  1  0  0  0  0  0  0  0  0
   -1.4553    2.8535    7.1409 H   0  0  0  1  0  0  0  0  0  0  0  0
   -1.1354    4.1976    6.0708 H   0  0  0  1  0  0  0  0  0  0  0  0
   -1.6578    7.5643    0.7212 F   0  0  0  1  0  0  0  0  0  0  0  0
   -2.2544    6.3619    0.8315 C   0  0  0  1  0  0  0  0  0  0  0  0
   -1.5268    5.1967    1.0174 C   0  0  0  1  0  0  0  0  0  0  0  0
   -2.1798    3.9830    1.1202 C   0  0  0  1  0  0  0  0  0  0  0  0
   -3.5628    3.9315    1.0429 C   0  0  0  1  0  0  0  0  0  0  0  0
   -4.2885    5.0931    0.8576 C   0  0  0  1  0  0  0  0  0  0  0  0
   -3.6334    6.3104    0.7545 C   0  0  0  1  0  0  0  0  0  0  0  0
   -1.4405    2.6806    1.3174 C   0  0  0  1  0  0  0  0  0  0  0  0
   -0.4894    5.2359    1.0794 H   0  0  0  1  0  0  0  0  0  0  0  0
   -4.0545    3.0187    1.1243 H   0  0  0  1  0  0  0  0  0  0  0  0
   -5.3259    5.0539    0.7956 H   0  0  0  1  0  0  0  0  0  0  0  0
   -4.1796    7.1850    0.6191 H   0  0  0  1  0  0  0  0  0  0  0  0
   -1.6878    2.0231    0.5103 H   0  0  0  1  0  0  0  0  0  0  0  0
   -0.3894    2.8806    1.3060 H   0  0  0  1  0  0  0  0  0  0  0  0
  1  4  1  0  0  0  0
  2  4  1  0  0  0  0
  2  5  2  0  0  0  0
  2  6  1  0  0  0  0
  3  4  1  0  0  0  0
  3  7  1  0  0  0  0
  3  8  1  0  0  0  0
  4 26  1  0  0  0  0
  6  9  1  0  0  0  0
  6 12  1  0  0  0  0
  8 10  1  0  0  0  0
  8 11  2  0  0  0  0
  9 13  1  0  0  0  0
  9 14  1  0  0  0  0
  9 15  1  0  0  0  0
 10 16  1  0  0  0  0
 10 17  1  0  0  0  0
 10 18  1  0  0  0  0
 19 20  1  0  0  0  0
 20 21  4  0  0  0  0
 20 25  4  0  0  0  0
 21 22  4  0  0  0  0
 21 27  1  0  0  0  0
 22 23  4  0  0  0  0
 22 26  1  0  0  0  0
 23 24  4  0  0  0  0
 23 28  1  0  0  0  0
 24 25  4  0  0  0  0
 24 29  1  0  0  0  0
 25 30  1  0  0  0  0
 26 31  1  0  0  0  0
 26 32  1  0  0  0  0
M  END
> <BCLConfClusterSize>
1

> <ConfClashScore>
0 

> <ConfOneFourInteractionScore>
-0.985807 

> <ConfScore>
-0.110691 

> <ConfScorePBest>
0.00569778 

> <ConfTolerance>
0.370843 

> <RosettaParamsInstructions>
M  ROOT 3
M  POLY_N_BB 3
M  POLY_CA_BB 4
M  POLY_C_BB 2
M  POLY_O_BB 5
M  POLY_IGNORE 9 10 11 12 13 14 15 16 17 18 
M  POLY_UPPER 6
M  POLY_LOWER 8
M  POLY_CHG 0
M  POLY_PROPERTIES ALPHA_AA L_AA PROTEIN AROMATIC POLYMER 
M  END

$$$$



 32 32  0  0  0  0  0  0  0  0999 V2000
   -2.5768    1.8874    2.8784 H   0  0  0  1  0  0  0  0  0  0  0  0
   -0.7391    0.8339    2.8541 C   0  0  0  1  0  0  0  0  0  0  0  0
   -1.1212    3.0835    3.7347 N   0  0  0  1  0  0  0  0  0  0  0  0
   -1.5445    2.1232    2.7240 C   0  0  0  1  0  0  0  0  0  0  0  0
    0.4325    0.7728    2.4836 O   0  0  0  1  0  0  0  0  0  0  0  0
   -1.3877   -0.2041    3.3900 N   0  0  0  1  0  0  0  0  0  0  0  0
   -0.2040    3.4197    3.6572 H   0  0  0  1  0  0  0  0  0  0  0  0
   -1.8415    3.5579    4.7551 C   0  0  0  1  0  0  0  0  0  0  0  0
   -0.7278   -1.4690    3.6768 C   0  0  0  1  0  0  0  0  0  0  0  0
   -1.1540    4.5962    5.6201 C   0  0  0  1  0  0  0  0  0  0  0  0
   -2.9808    3.1910    4.9912 O   0  0  0  1  0  0  0  0  0  0  0  0
   -2.3409   -0.1103    3.5971 H   0  0  0  1  0  0  0  0  0  0  0  0
    0.2989   -1.2894    3.9188 H   0  0  0  1  0  0  0  0  0  0  0  0
   -0.7856   -2.1041    2.8176 H   0  0  0  1  0  0  0  0  0  0  0  0
   -1.2114   -1.9436    4.5050 H   0  0  0  1  0  0  0  0  0  0  0  0
   -0.2582    4.1811    6.0326 H   0  0  0  1  0  0  0  0  0  0  0  0
   -1.8092    4.8894    6.4136 H   0  0  0  1  0  0  0  0  0  0  0  0
   -0.9094    5.4509    5.0246 H   0  0  0  1  0  0  0  0  0  0  0  0
   -1.6228    7.5417    0.7261 F   0  0  0  1  0  0  0  0  0  0  0  0
   -2.2608    6.3603    0.8314 C   0  0  0  1  0  0  0  0  0  0  0  0
   -1.5345    5.1943    1.0172 C   0  0  0  1  0  0  0  0  0  0  0  0
   -2.1888    3.9813    1.1199 C   0  0  0  1  0  0  0  0  0  0  0  0
   -3.5719    3.9313    1.0424 C   0  0  0  1  0  0  0  0  0  0  0  0
   -4.2963    5.0937    0.8570 C   0  0  0  1  0  0  0  0  0  0  0  0
   -3.6399    6.3103    0.7541 C   0  0  0  1  0  0  0  0  0  0  0  0
   -1.3975    2.7098    1.3166 C   0  0  0  1  0  0  0  0  0  0  0  0
   -0.4971    5.2324    1.0794 H   0  0  0  1  0  0  0  0  0  0  0  0
   -4.0646    3.0190    1.1236 H   0  0  0  1  0  0  0  0  0  0  0  0
   -5.3338    5.0556    0.7949 H   0  0  0  1  0  0  0  0  0  0  0  0
   -4.1852    7.1855    0.6187 H   0  0  0  1  0  0  0  0  0  0  0  0
   -1.7376    1.9839    0.6078 H   0  0  0  1  0  0  0  0  0  0  0  0
   -0.3633    2.9219    1.1423 H   0  0  0  1  0  0  0  0  0  0  0  0
  1  4  1  0  0  0  0
  2  4  1  0  0  0  0
  2  5  2  0  0  0  0
  2  6  1  0  0  0  0
  3  4  1  0  0  0  0
  3  7  1  0  0  0  0
  3  8  1  0  0  0  0
  4 26  1  0  0  0  0
  6  9  1  0  0  0  0
  6 12  1  0  0  0  0
  8 10  1  0  0  0  0
  8 11  2  0  0  0  0
  9 13  1  0  0  0  0
  9 14  1  0  0  0  0
  9 15  1  0  0  0  0
 10 16  1  0  0  0  0
 10 17  1  0  0  0  0
 10 18  1  0  0  0  0
 19 20  1  0  0  0  0
 20 21  4  0  0  0  0
 20 25  4  0  0  0  0
 21 22  4  0  0  0  0
 21 27  1  0  0  0  0
 22 23  4  0  0  0  0
 22 26  1  0  0  0  0
 23 24  4  0  0  0  0
 23 28  1  0  0  0  0
 24 25  4  0  0  0  0
 24 29  1  0  0  0  0
 25 30  1  0  0  0  0
 26 31  1  0  0  0  0
 26 32  1  0  0  0  0
M  END
> <BCLConfClusterSize>
1

> <ConfClashScore>
0 

> <ConfOneFourInteractionScore>
-0.979134 

> <ConfScore>
-0.110074 

> <ConfScorePBest>
0.0056693 

> <ConfTolerance>
0.365711 

> <RosettaParamsInstructions>
M  ROOT 3
M  POLY_N_BB 3
M  POLY_CA_BB 4
M  POLY_C_BB 2
M  POLY_O_BB 5
M  POLY_IGNORE 9 10 11 12 13 14 15 16 17 18 
M  POLY_UPPER 6
M  POLY_LOWER 8
M  POLY_CHG 0
M  POLY_PROPERTIES ALPHA_AA L_AA PROTEIN AROMATIC POLYMER 
M  END

$$$$



 32 32  0  0  0  0  0  0  0  0999 V2000
   -0.8281    1.3995    2.8587 H   0  0  0  1  0  0  0  0  0  0  0  0
   -0.4203    3.3348    3.5658 C   0  0  0  1  0  0  0  0  0  0  0  0
   -2.6172    2.2311    3.4263 N   0  0  0  1  0  0  0  0  0  0  0  0
   -1.3049    2.3557    2.8020 C   0  0  0  1  0  0  0  0  0  0  0  0
   -0.9128    4.2467    4.2247 O   0  0  0  1  0  0  0  0  0  0  0  0
    0.9017    3.1709    3.4965 N   0  0  0  1  0  0  0  0  0  0  0  0
   -3.0433    3.0510    3.7527 H   0  0  0  1  0  0  0  0  0  0  0  0
   -3.3072    1.0400    3.5927 C   0  0  0  1  0  0  0  0  0  0  0  0
    1.8858    4.1078    4.0176 C   0  0  0  1  0  0  0  0  0  0  0  0
   -4.5846    1.0404    4.3846 C   0  0  0  1  0  0  0  0  0  0  0  0
   -2.8530    0.0288    3.0893 O   0  0  0  1  0  0  0  0  0  0  0  0
    1.2354    2.3583    3.0619 H   0  0  0  1  0  0  0  0  0  0  0  0
    1.5652    5.1093    3.8200 H   0  0  0  1  0  0  0  0  0  0  0  0
    2.8289    3.9351    3.5425 H   0  0  0  1  0  0  0  0  0  0  0  0
    1.9870    3.9678    5.0736 H   0  0  0  1  0  0  0  0  0  0  0  0
   -4.3965    1.4235    5.3658 H   0  0  0  1  0  0  0  0  0  0  0  0
   -4.9587    0.0406    4.4580 H   0  0  0  1  0  0  0  0  0  0  0  0
   -5.3080    1.6573    3.8938 H   0  0  0  1  0  0  0  0  0  0  0  0
   -1.5924    7.5248    0.7300 F   0  0  0  1  0  0  0  0  0  0  0  0
   -2.2671    6.3635    0.8306 C   0  0  0  1  0  0  0  0  0  0  0  0
   -1.5379    5.1994    1.0164 C   0  0  0  1  0  0  0  0  0  0  0  0
   -2.1893    3.9848    1.1194 C   0  0  0  1  0  0  0  0  0  0  0  0
   -3.5723    3.9314    1.0423 C   0  0  0  1  0  0  0  0  0  0  0  0
   -4.2996    5.0921    0.8570 C   0  0  0  1  0  0  0  0  0  0  0  0
   -3.6461    6.3102    0.7537 C   0  0  0  1  0  0  0  0  0  0  0  0
   -1.3949    2.7152    1.3161 C   0  0  0  1  0  0  0  0  0  0  0  0
   -0.5006    5.2399    1.0783 H   0  0  0  1  0  0  0  0  0  0  0  0
   -4.0627    3.0180    1.1239 H   0  0  0  1  0  0  0  0  0  0  0  0
   -5.3369    5.0515    0.7952 H   0  0  0  1  0  0  0  0  0  0  0  0
   -4.1935    7.1841    0.6183 H   0  0  0  1  0  0  0  0  0  0  0  0
   -1.8745    1.9163    0.7902 H   0  0  0  1  0  0  0  0  0  0  0  0
   -0.4074    2.8558    0.9287 H   0  0  0  1  0  0  0  0  0  0  0  0
  1  4  1  0  0  0  0
  2  4  1  0  0  0  0
  2  5  2  0  0  0  0
  2  6  1  0  0  0  0
  3  4  1  0  0  0  0
  3  7  1  0  0  0  0
  3  8  1  0  0  0  0
  4 26  1  0  0  0  0
  6  9  1  0  0  0  0
  6 12  1  0  0  0  0
  8 10  1  0  0  0  0
  8 11  2  0  0  0  0
  9 13  1  0  0  0  0
  9 14  1  0  0  0  0
  9 15  1  0  0  0  0
 10 16  1  0  0  0  0
 10 17  1  0  0  0  0
 10 18  1  0  0  0  0
 19 20  1  0  0  0  0
 20 21  4  0  0  0  0
 20 25  4  0  0  0  0
 21 22  4  0  0  0  0
 21 27  1  0  0  0  0
 22 23  4  0  0  0  0
 22 26  1  0  0  0  0
 23 24  4  0  0  0  0
 23 28  1  0  0  0  0
 24 25  4  0  0  0  0
 24 29  1  0  0  0  0
 25 30  1  0  0  0  0
 26 31  1  0  0  0  0
 26 32  1  0  0  0  0
M  END
> <BCLConfClusterSize>
1

> <ConfClashScore>
0 

> <ConfOneFourInteractionScore>
-0.980789 

> <ConfScore>
-0.102277 

> <ConfScorePBest>
0.00564082 

> <ConfTolerance>
0.243101 

> <RosettaParamsInstructions>
M  ROOT 3
M  POLY_N_BB 3
M  POLY_CA_BB 4
M  POLY_C_BB 2
M  POLY_O_BB 5
M  POLY_IGNORE 9 10 11 12 13 14 15 16 17 18 
M  POLY_UPPER 6
M  POLY_LOWER 8
M  POLY_CHG 0
M  POLY_PROPERTIES ALPHA_AA L_AA PROTEIN AROMATIC POLYMER 
M  END

$$$$



 32 32  0  0  0  0  0  0  0  0999 V2000
   -0.7606    1.0373    0.1888 H   0  0  0  1  0  0  0  0  0  0  0  0
   -2.4338    1.7522   -0.8629 C   0  0  0  1  0  0  0  0  0  0  0  0
   -0.1926    2.7613   -0.8046 N   0  0  0  1  0  0  0  0  0  0  0  0
   -1.1862    1.9950   -0.0269 C   0  0  0  1  0  0  0  0  0  0  0  0
   -2.6852    2.4421   -1.8500 O   0  0  0  1  0  0  0  0  0  0  0  0
   -3.2213    0.7534   -0.4538 N   0  0  0  1  0  0  0  0  0  0  0  0
   -0.5001    3.3042   -1.5604 H   0  0  0  1  0  0  0  0  0  0  0  0
    1.1526    2.7398   -0.5047 C   0  0  0  1  0  0  0  0  0  0  0  0
   -4.5489    0.5333   -1.0079 C   0  0  0  1  0  0  0  0  0  0  0  0
    2.0323    3.5901   -1.3741 C   0  0  0  1  0  0  0  0  0  0  0  0
    1.5612    2.0593    0.4171 O   0  0  0  1  0  0  0  0  0  0  0  0
   -2.8936    0.1480    0.2437 H   0  0  0  1  0  0  0  0  0  0  0  0
   -4.8932    1.4309   -1.4776 H   0  0  0  1  0  0  0  0  0  0  0  0
   -5.2224    0.2613   -0.2222 H   0  0  0  1  0  0  0  0  0  0  0  0
   -4.5072   -0.2541   -1.7311 H   0  0  0  1  0  0  0  0  0  0  0  0
    2.0506    3.1880   -2.3655 H   0  0  0  1  0  0  0  0  0  0  0  0
    3.0251    3.6000   -0.9751 H   0  0  0  1  0  0  0  0  0  0  0  0
    1.6484    4.5885   -1.4014 H   0  0  0  1  0  0  0  0  0  0  0  0
   -1.6268    7.5487    0.7250 F   0  0  0  1  0  0  0  0  0  0  0  0
   -2.2607    6.3650    0.8308 C   0  0  0  1  0  0  0  0  0  0  0  0
   -1.5303    5.2017    1.0166 C   0  0  0  1  0  0  0  0  0  0  0  0
   -2.1803    3.9864    1.1198 C   0  0  0  1  0  0  0  0  0  0  0  0
   -3.5633    3.9316    1.0429 C   0  0  0  1  0  0  0  0  0  0  0  0
   -4.2918    5.0914    0.8576 C   0  0  0  1  0  0  0  0  0  0  0  0
   -3.6396    6.3102    0.7541 C   0  0  0  1  0  0  0  0  0  0  0  0
   -1.4379    2.6859    1.3169 C   0  0  0  1  0  0  0  0  0  0  0  0
   -0.4929    5.2433    1.0783 H   0  0  0  1  0  0  0  0  0  0  0  0
   -4.0527    3.0176    1.1246 H   0  0  0  1  0  0  0  0  0  0  0  0
   -5.3291    5.0497    0.7959 H   0  0  0  1  0  0  0  0  0  0  0  0
   -4.1880    7.1835    0.6187 H   0  0  0  1  0  0  0  0  0  0  0  0
   -0.4991    2.8860    1.7897 H   0  0  0  1  0  0  0  0  0  0  0  0
   -2.0209    2.0400    1.9397 H   0  0  0  1  0  0  0  0  0  0  0  0
  1  4  1  0  0  0  0
  2  4  1  0  0  0  0
  2  5  2  0  0  0  0
  2  6  1  0  0  0  0
  3  4  1  0  0  0  0
  3  7  1  0  0  0  0
  3  8  1  0  0  0  0
  4 26  1  0  0  0  0
  6  9  1  0  0  0  0
  6 12  1  0  0  0  0
  8 10  1  0  0  0  0
  8 11  2  0  0  0  0
  9 13  1  0  0  0  0
  9 14  1  0  0  0  0
  9 15  1  0  0  0  0
 10 16  1  0  0  0  0
 10 17  1  0  0  0  0
 10 18  1  0  0  0  0
 19 20  1  0  0  0  0
 20 21  4  0  0  0  0
 20 25  4  0  0  0  0
 21 22  4  0  0  0  0
 21 27  1  0  0  0  0
 22 23  4  0  0  0  0
 22 26  1  0  0  0  0
 23 24  4  0  0  0  0
 23 28  1  0  0  0  0
 24 25  4  0  0  0  0
 24 29  1  0  0  0  0
 25 30  1  0  0  0  0
 26 31  1  0  0  0  0
 26 32  1  0  0  0  0
M  END
> <BCLConfClusterSize>
1

> <ConfClashScore>
0 

> <ConfOneFourInteractionScore>
-0.987258 

> <ConfScore>
-0.100334 

> <ConfScorePBest>
0.00561234 

> <ConfTolerance>
0.25467 

> <RosettaParamsInstructions>
M  ROOT 3
M  POLY_N_BB 3
M  POLY_CA_BB 4
M  POLY_C_BB 2
M  POLY_O_BB 5
M  POLY_IGNORE 9 10 11 12 13 14 15 16 17 18 
M  POLY_UPPER 6
M  POLY_LOWER 8
M  POLY_CHG 0
M  POLY_PROPERTIES ALPHA_AA L_AA PROTEIN AROMATIC POLYMER 
M  END

$$$$



 32 32  0  0  0  0  0  0  0  0999 V2000
    0.5302    3.3562    0.7206 H   0  0  0  1  0  0  0  0  0  0  0  0
    0.4922    1.2492    0.4590 C   0  0  0  1  0  0  0  0  0  0  0  0
   -0.5446    2.8592   -0.9841 N   0  0  0  1  0  0  0  0  0  0  0  0
   -0.1790    2.6188    0.4074 C   0  0  0  1  0  0  0  0  0  0  0  0
    1.1731    0.8925    1.4032 O   0  0  0  1  0  0  0  0  0  0  0  0
    0.3294    0.4040   -0.5702 N   0  0  0  1  0  0  0  0  0  0  0  0
   -1.4819    3.0451   -1.2015 H   0  0  0  1  0  0  0  0  0  0  0  0
    0.3540    2.8349   -1.9725 C   0  0  0  1  0  0  0  0  0  0  0  0
    0.8523   -0.9518   -0.4921 C   0  0  0  1  0  0  0  0  0  0  0  0
   -0.1488    3.2829   -3.3310 C   0  0  0  1  0  0  0  0  0  0  0  0
    1.5172    2.4759   -1.8101 O   0  0  0  1  0  0  0  0  0  0  0  0
   -0.1427    0.7003   -1.3763 H   0  0  0  1  0  0  0  0  0  0  0  0
    0.8714   -1.2690    0.5297 H   0  0  0  1  0  0  0  0  0  0  0  0
    1.8450   -0.9745   -0.8909 H   0  0  0  1  0  0  0  0  0  0  0  0
    0.2251   -1.6089   -1.0576 H   0  0  0  1  0  0  0  0  0  0  0  0
   -0.7556    4.1568   -3.2169 H   0  0  0  1  0  0  0  0  0  0  0  0
   -0.7304    2.5002   -3.7716 H   0  0  0  1  0  0  0  0  0  0  0  0
    0.6846    3.5078   -3.9632 H   0  0  0  1  0  0  0  0  0  0  0  0
   -1.6228    7.5417    0.7261 F   0  0  0  1  0  0  0  0  0  0  0  0
   -2.2608    6.3603    0.8314 C   0  0  0  1  0  0  0  0  0  0  0  0
   -1.5345    5.1943    1.0172 C   0  0  0  1  0  0  0  0  0  0  0  0
   -2.1888    3.9813    1.1199 C   0  0  0  1  0  0  0  0  0  0  0  0
   -3.5719    3.9313    1.0424 C   0  0  0  1  0  0  0  0  0  0  0  0
   -4.2963    5.0937    0.8570 C   0  0  0  1  0  0  0  0  0  0  0  0
   -3.6399    6.3103    0.7541 C   0  0  0  1  0  0  0  0  0  0  0  0
   -1.3975    2.7098    1.3166 C   0  0  0  1  0  0  0  0  0  0  0  0
   -0.4971    5.2324    1.0794 H   0  0  0  1  0  0  0  0  0  0  0  0
   -4.0646    3.0190    1.1236 H   0  0  0  1  0  0  0  0  0  0  0  0
   -5.3338    5.0556    0.7949 H   0  0  0  1  0  0  0  0  0  0  0  0
   -4.1852    7.1855    0.6187 H   0  0  0  1  0  0  0  0  0  0  0  0
   -1.0675    2.6679    2.3335 H   0  0  0  1  0  0  0  0  0  0  0  0
   -2.0368    1.8760    1.1138 H   0  0  0  1  0  0  0  0  0  0  0  0
  1  4  1  0  0  0  0
  2  4  1  0  0  0  0
  2  5  2  0  0  0  0
  2  6  1  0  0  0  0
  3  4  1  0  0  0  0
  3  7  1  0  0  0  0
  3  8  1  0  0  0  0
  4 26  1  0  0  0  0
  6  9  1  0  0  0  0
  6 12  1  0  0  0  0
  8 10  1  0  0  0  0
  8 11  2  0  0  0  0
  9 13  1  0  0  0  0
  9 14  1  0  0  0  0
  9 15  1  0  0  0  0
 10 16  1  0  0  0  0
 10 17  1  0  0  0  0
 10 18  1  0  0  0  0
 19 20  1  0  0  0  0
 20 21  4  0  0  0  0
 20 25  4  0  0  0  0
 21 22  4  0  0  0  0
 21 27  1  0  0  0  0
 22 23  4  0  0  0  0
 22 26  1  0  0  0  0
 23 24  4  0  0  0  0
 23 28  1  0  0  0  0
 24 25  4  0  0  0  0
 24 29  1  0  0  0  0
 25 30  1  0  0  0  0
 26 31  1  0  0  0  0
 26 32  1  0  0  0  0
M  END
> <BCLConfClusterSize>
1

> <ConfClashScore>
0 

> <ConfOneFourInteractionScore>
-0.94165 

> <ConfScore>
-0.0920008 

> <ConfScorePBest>
0.00558386 

> <ConfTolerance>
0.510367 

> <RosettaParamsInstructions>
M  ROOT 3
M  POLY_N_BB 3
M  POLY_CA_BB 4
M  POLY_C_BB 2
M  POLY_O_BB 5
M  POLY_IGNORE 9 10 11 12 13 14 15 16 17 18 
M  POLY_UPPER 6
M  POLY_LOWER 8
M  POLY_CHG 0
M  POLY_PROPERTIES ALPHA_AA L_AA PROTEIN AROMATIC POLYMER 
M  END

$$$$



 32 32  0  0  0  0  0  0  0  0999 V2000
    0.4498    3.2565    0.4725 H   0  0  0  1  0  0  0  0  0  0  0  0
    0.3507    1.1554    0.4084 C   0  0  0  1  0  0  0  0  0  0  0  0
   -0.8366    2.7630   -1.0550 N   0  0  0  1  0  0  0  0  0  0  0  0
   -0.3039    2.5224    0.2778 C   0  0  0  1  0  0  0  0  0  0  0  0
   -0.1321    0.1619   -0.1332 O   0  0  0  1  0  0  0  0  0  0  0  0
    1.4728    1.1141    1.1443 N   0  0  0  1  0  0  0  0  0  0  0  0
   -1.7940    2.9464   -1.1557 H   0  0  0  1  0  0  0  0  0  0  0  0
   -0.0648    2.7424   -2.1475 C   0  0  0  1  0  0  0  0  0  0  0  0
    2.2130   -0.1193    1.3645 C   0  0  0  1  0  0  0  0  0  0  0  0
   -0.7671    3.0378   -3.4534 C   0  0  0  1  0  0  0  0  0  0  0  0
    1.1389    2.5011   -2.1114 O   0  0  0  1  0  0  0  0  0  0  0  0
    1.8049    1.9434    1.5472 H   0  0  0  1  0  0  0  0  0  0  0  0
    2.4933   -0.1885    2.3948 H   0  0  0  1  0  0  0  0  0  0  0  0
    3.0924   -0.1210    0.7550 H   0  0  0  1  0  0  0  0  0  0  0  0
    1.5975   -0.9554    1.1057 H   0  0  0  1  0  0  0  0  0  0  0  0
   -0.1649    2.6942   -4.2684 H   0  0  0  1  0  0  0  0  0  0  0  0
   -0.9217    4.0926   -3.5444 H   0  0  0  1  0  0  0  0  0  0  0  0
   -1.7117    2.5355   -3.4717 H   0  0  0  1  0  0  0  0  0  0  0  0
   -1.6228    7.5417    0.7261 F   0  0  0  1  0  0  0  0  0  0  0  0
   -2.2608    6.3603    0.8314 C   0  0  0  1  0  0  0  0  0  0  0  0
   -1.5345    5.1943    1.0172 C   0  0  0  1  0  0  0  0  0  0  0  0
   -2.1888    3.9813    1.1199 C   0  0  0  1  0  0  0  0  0  0  0  0
   -3.5719    3.9313    1.0424 C   0  0  0  1  0  0  0  0  0  0  0  0
   -4.2963    5.0937    0.8570 C   0  0  0  1  0  0  0  0  0  0  0  0
   -3.6399    6.3103    0.7541 C   0  0  0  1  0  0  0  0  0  0  0  0
   -1.3975    2.7098    1.3166 C   0  0  0  1  0  0  0  0  0  0  0  0
   -0.4971    5.2324    1.0794 H   0  0  0  1  0  0  0  0  0  0  0  0
   -4.0646    3.0190    1.1236 H   0  0  0  1  0  0  0  0  0  0  0  0
   -5.3338    5.0556    0.7949 H   0  0  0  1  0  0  0  0  0  0  0  0
   -4.1852    7.1855    0.6187 H   0  0  0  1  0  0  0  0  0  0  0  0
   -0.9454    2.7365    2.2860 H   0  0  0  1  0  0  0  0  0  0  0  0
   -2.0687    1.8785    1.2582 H   0  0  0  1  0  0  0  0  0  0  0  0
  1  4  1  0  0  0  0
  2  4  1  0  0  0  0
  2  5  2  0  0  0  0
  2  6  1  0  0  0  0
  3  4  1  0  0  0  0
  3  7  1  0  0  0  0
  3  8  1  0  0  0  0
  4 26  1  0  0  0  0
  6  9  1  0  0  0  0
  6 12  1  0  0  0  0
  8 10  1  0  0  0  0
  8 11  2  0  0  0  0
  9 13  1  0  0  0  0
  9 14  1  0  0  0  0
  9 15  1  0  0  0  0
 10 16  1  0  0  0  0
 10 17  1  0  0  0  0
 10 18  1  0  0  0  0
 19 20  1  0  0  0  0
 20 21  4  0  0  0  0
 20 25  4  0  0  0  0
 21 22  4  0  0  0  0
 21 27  1  0  0  0  0
 22 23  4  0  0  0  0
 22 26  1  0  0  0  0
 23 24  4  0  0  0  0
 23 28  1  0  0  0  0
 24 25  4  0  0  0  0
 24 29  1  0  0  0  0
 25 30  1  0  0  0  0
 26 31  1  0  0  0  0
 26 32  1  0  0  0  0
M  END
> <BCLConfClusterSize>
1

> <ConfClashScore>
0 

> <ConfOneFourInteractionScore>
-0.985807 

> <ConfScore>
-0.0917245 

> <ConfScorePBest>
0.00555537 

> <ConfTolerance>
0.4534 

> <RosettaParamsInstructions>
M  ROOT 3
M  POLY_N_BB 3
M  POLY_CA_BB 4
M  POLY_C_BB 2
M  POLY_O_BB 5
M  POLY_IGNORE 9 10 11 12 13 14 15 16 17 18 
M  POLY_UPPER 6
M  POLY_LOWER 8
M  POLY_CHG 0
M  POLY_PROPERTIES ALPHA_AA L_AA PROTEIN AROMATIC POLYMER 
M  END

$$$$



 32 32  0  0  0  0  0  0  0  0999 V2000
    0.1373    3.5302    2.4209 H   0  0  0  1  0  0  0  0  0  0  0  0
    0.7345    1.5768    1.9503 C   0  0  0  1  0  0  0  0  0  0  0  0
    0.7315    3.5291    0.4564 N   0  0  0  1  0  0  0  0  0  0  0  0
    0.0533    2.8819    1.5738 C   0  0  0  1  0  0  0  0  0  0  0  0
    0.8902    1.2549    3.1253 O   0  0  0  1  0  0  0  0  0  0  0  0
    1.1437    0.8197    0.9283 N   0  0  0  1  0  0  0  0  0  0  0  0
    0.2097    3.7730   -0.3365 H   0  0  0  1  0  0  0  0  0  0  0  0
    2.0395    3.8008    0.4761 C   0  0  0  1  0  0  0  0  0  0  0  0
    1.6083   -0.5473    1.1106 C   0  0  0  1  0  0  0  0  0  0  0  0
    2.6188    4.3447   -0.8154 C   0  0  0  1  0  0  0  0  0  0  0  0
    2.7449    3.6274    1.4690 O   0  0  0  1  0  0  0  0  0  0  0  0
    1.1305    1.1982    0.0244 H   0  0  0  1  0  0  0  0  0  0  0  0
    2.5809   -0.6547    0.6775 H   0  0  0  1  0  0  0  0  0  0  0  0
    0.9288   -1.2215    0.6325 H   0  0  0  1  0  0  0  0  0  0  0  0
    1.6570   -0.7707    2.1559 H   0  0  0  1  0  0  0  0  0  0  0  0
    2.0421    5.1857   -1.1393 H   0  0  0  1  0  0  0  0  0  0  0  0
    2.5917    3.5833   -1.5667 H   0  0  0  1  0  0  0  0  0  0  0  0
    3.6315    4.6489   -0.6515 H   0  0  0  1  0  0  0  0  0  0  0  0
   -1.6268    7.5487    0.7250 F   0  0  0  1  0  0  0  0  0  0  0  0
   -2.2607    6.3650    0.8308 C   0  0  0  1  0  0  0  0  0  0  0  0
   -1.5303    5.2017    1.0166 C   0  0  0  1  0  0  0  0  0  0  0  0
   -2.1803    3.9864    1.1198 C   0  0  0  1  0  0  0  0  0  0  0  0
   -3.5633    3.9316    1.0429 C   0  0  0  1  0  0  0  0  0  0  0  0
   -4.2918    5.0914    0.8576 C   0  0  0  1  0  0  0  0  0  0  0  0
   -3.6396    6.3102    0.7541 C   0  0  0  1  0  0  0  0  0  0  0  0
   -1.4379    2.6859    1.3169 C   0  0  0  1  0  0  0  0  0  0  0  0
   -0.4929    5.2433    1.0783 H   0  0  0  1  0  0  0  0  0  0  0  0
   -4.0527    3.0176    1.1246 H   0  0  0  1  0  0  0  0  0  0  0  0
   -5.3291    5.0497    0.7959 H   0  0  0  1  0  0  0  0  0  0  0  0
   -4.1880    7.1835    0.6187 H   0  0  0  1  0  0  0  0  0  0  0  0
   -1.8634    2.1744    2.1549 H   0  0  0  1  0  0  0  0  0  0  0  0
   -1.5563    2.0893    0.4366 H   0  0  0  1  0  0  0  0  0  0  0  0
  1  4  1  0  0  0  0
  2  4  1  0  0  0  0
  2  5  2  0  0  0  0
  2  6  1  0  0  0  0
  3  4  1  0  0  0  0
  3  7  1  0  0  0  0
  3  8  1  0  0  0  0
  4 26  1  0  0  0  0
  6  9  1  0  0  0  0
  6 12  1  0  0  0  0
  8 10  1  0  0  0  0
  8 11  2  0  0  0  0
  9 13  1  0  0  0  0
  9 14  1  0  0  0  0
  9 15  1  0  0  0  0
 10 16  1  0  0  0  0
 10 17  1  0  0  0  0
 10 18  1  0  0  0  0
 19 20  1  0  0  0  0
 20 21  4  0  0  0  0
 20 25  4  0  0  0  0
 21 22  4  0  0  0  0
 21 27  1  0  0  0  0
 22 23  4  0  0  0  0
 22 26  1  0  0  0  0
 23 24  4  0  0  0  0
 23 28  1  0  0  0  0
 24 25  4  0  0  0  0
 24 29  1  0  0  0  0
 25 30  1  0  0  0  0
 26 31  1  0  0  0  0
 26 32  1  0  0  0  0
M  END
> <BCLConfClusterSize>
1

> <ConfClashScore>
0 

> <ConfOneFourInteractionScore>
-0.949001 

> <ConfScore>
-0.0810304 

> <ConfScorePBest>
0.00552689 

> <ConfTolerance>
0.623122 

> <RosettaParamsInstructions>
M  ROOT 3
M  POLY_N_BB 3
M  POLY_CA_BB 4
M  POLY_C_BB 2
M  POLY_O_BB 5
M  POLY_IGNORE 9 10 11 12 13 14 15 16 17 18 
M  POLY_UPPER 6
M  POLY_LOWER 8
M  POLY_CHG 0
M  POLY_PROPERTIES ALPHA_AA L_AA PROTEIN AROMATIC POLYMER 
M  END

$$$$



 32 32  0  0  0  0  0  0  0  0999 V2000
    0.1741    3.0761   -0.0210 H   0  0  0  1  0  0  0  0  0  0  0  0
    0.1506    0.9950    0.3817 C   0  0  0  1  0  0  0  0  0  0  0  0
   -1.3447    2.1524   -1.0945 N   0  0  0  1  0  0  0  0  0  0  0  0
   -0.5588    2.3094    0.1202 C   0  0  0  1  0  0  0  0  0  0  0  0
   -0.5169    0.0563    0.8141 O   0  0  0  1  0  0  0  0  0  0  0  0
    1.4663    0.9238    0.1285 N   0  0  0  1  0  0  0  0  0  0  0  0
   -2.0901    1.5166   -1.1159 H   0  0  0  1  0  0  0  0  0  0  0  0
   -1.0491    2.8803   -2.1914 C   0  0  0  1  0  0  0  0  0  0  0  0
    2.1977   -0.3041    0.4024 C   0  0  0  1  0  0  0  0  0  0  0  0
   -1.9566    2.5980   -3.3729 C   0  0  0  1  0  0  0  0  0  0  0  0
   -0.1373    3.7033   -2.2608 O   0  0  0  1  0  0  0  0  0  0  0  0
    1.9357    1.7004   -0.2417 H   0  0  0  1  0  0  0  0  0  0  0  0
    3.1793   -0.0642    0.7543 H   0  0  0  1  0  0  0  0  0  0  0  0
    2.2722   -0.8823   -0.4949 H   0  0  0  1  0  0  0  0  0  0  0  0
    1.6795   -0.8686    1.1491 H   0  0  0  1  0  0  0  0  0  0  0  0
   -1.7790    1.6053   -3.7305 H   0  0  0  1  0  0  0  0  0  0  0  0
   -1.7532    3.3000   -4.1543 H   0  0  0  1  0  0  0  0  0  0  0  0
   -2.9781    2.6893   -3.0675 H   0  0  0  1  0  0  0  0  0  0  0  0
   -1.6268    7.5487    0.7250 F   0  0  0  1  0  0  0  0  0  0  0  0
   -2.2607    6.3650    0.8308 C   0  0  0  1  0  0  0  0  0  0  0  0
   -1.5303    5.2017    1.0166 C   0  0  0  1  0  0  0  0  0  0  0  0
   -2.1803    3.9864    1.1198 C   0  0  0  1  0  0  0  0  0  0  0  0
   -3.5633    3.9316    1.0429 C   0  0  0  1  0  0  0  0  0  0  0  0
   -4.2918    5.0914    0.8576 C   0  0  0  1  0  0  0  0  0  0  0  0
   -3.6396    6.3102    0.7541 C   0  0  0  1  0  0  0  0  0  0  0  0
   -1.4379    2.6859    1.3169 C   0  0  0  1  0  0  0  0  0  0  0  0
   -0.4929    5.2433    1.0783 H   0  0  0  1  0  0  0  0  0  0  0  0
   -4.0527    3.0176    1.1246 H   0  0  0  1  0  0  0  0  0  0  0  0
   -5.3291    5.0497    0.7959 H   0  0  0  1  0  0  0  0  0  0  0  0
   -4.1880    7.1835    0.6187 H   0  0  0  1  0  0  0  0  0  0  0  0
   -0.8147    2.7772    2.1819 H   0  0  0  1  0  0  0  0  0  0  0  0
   -2.1532    1.9056    1.4729 H   0  0  0  1  0  0  0  0  0  0  0  0
  1  4  1  0  0  0  0
  2  4  1  0  0  0  0
  2  5  2  0  0  0  0
  2  6  1  0  0  0  0
  3  4  1  0  0  0  0
  3  7  1  0  0  0  0
  3  8  1  0  0  0  0
  4 26  1  0  0  0  0
  6  9  1  0  0  0  0
  6 12  1  0  0  0  0
  8 10  1  0  0  0  0
  8 11  2  0  0  0  0
  9 13  1  0  0  0  0
  9 14  1  0  0  0  0
  9 15  1  0  0  0  0
 10 16  1  0  0  0  0
 10 17  1  0  0  0  0
 10 18  1  0  0  0  0
 19 20  1  0  0  0  0
 20 21  4  0  0  0  0
 20 25  4  0  0  0  0
 21 22  4  0  0  0  0
 21 27  1  0  0  0  0
 22 23  4  0  0  0  0
 22 26  1  0  0  0  0
 23 24  4  0  0  0  0
 23 28  1  0  0  0  0
 24 25  4  0  0  0  0
 24 29  1  0  0  0  0
 25 30  1  0  0  0  0
 26 31  1  0  0  0  0
 26 32  1  0  0  0  0
M  END
> <BCLConfClusterSize>
1

> <ConfClashScore>
0 

> <ConfOneFourInteractionScore>
-0.98383 

> <ConfScore>
-0.0801876 

> <ConfScorePBest>
0.00549841 

> <ConfTolerance>
0.372933 

> <RosettaParamsInstructions>
M  ROOT 3
M  POLY_N_BB 3
M  POLY_CA_BB 4
M  POLY_C_BB 2
M  POLY_O_BB 5
M  POLY_IGNORE 9 10 11 12 13 14 15 16 17 18 
M  POLY_UPPER 6
M  POLY_LOWER 8
M  POLY_CHG 0
M  POLY_PROPERTIES ALPHA_AA L_AA PROTEIN AROMATIC POLYMER 
M  END

$$$$



 32 32  0  0  0  0  0  0  0  0999 V2000
   -0.9732    2.4430   -0.7496 H   0  0  0  1  0  0  0  0  0  0  0  0
   -0.1592    0.8003    0.3255 C   0  0  0  1  0  0  0  0  0  0  0  0
   -2.5236    1.1718   -0.2108 N   0  0  0  1  0  0  0  0  0  0  0  0
   -1.2577    1.8285    0.0789 C   0  0  0  1  0  0  0  0  0  0  0  0
   -0.4589   -0.2294    0.9285 O   0  0  0  1  0  0  0  0  0  0  0  0
    1.0651    1.0685   -0.1233 N   0  0  0  1  0  0  0  0  0  0  0  0
   -3.2960    1.3598    0.3623 H   0  0  0  1  0  0  0  0  0  0  0  0
   -2.6695    0.3216   -1.2311 C   0  0  0  1  0  0  0  0  0  0  0  0
    2.2095    0.2256    0.1892 C   0  0  0  1  0  0  0  0  0  0  0  0
   -4.0952   -0.1469   -1.5046 C   0  0  0  1  0  0  0  0  0  0  0  0
   -1.7262   -0.0695   -1.9173 O   0  0  0  1  0  0  0  0  0  0  0  0
    1.2004    1.8611   -0.6835 H   0  0  0  1  0  0  0  0  0  0  0  0
    2.8523    0.7361    0.8757 H   0  0  0  1  0  0  0  0  0  0  0  0
    2.7483    0.0087   -0.7095 H   0  0  0  1  0  0  0  0  0  0  0  0
    1.8695   -0.6876    0.6311 H   0  0  0  1  0  0  0  0  0  0  0  0
   -4.1261   -1.2165   -1.5037 H   0  0  0  1  0  0  0  0  0  0  0  0
   -4.4134    0.2180   -2.4588 H   0  0  0  1  0  0  0  0  0  0  0  0
   -4.7462    0.2291   -0.7432 H   0  0  0  1  0  0  0  0  0  0  0  0
   -1.6228    7.5417    0.7261 F   0  0  0  1  0  0  0  0  0  0  0  0
   -2.2608    6.3603    0.8314 C   0  0  0  1  0  0  0  0  0  0  0  0
   -1.5345    5.1943    1.0172 C   0  0  0  1  0  0  0  0  0  0  0  0
   -2.1888    3.9813    1.1199 C   0  0  0  1  0  0  0  0  0  0  0  0
   -3.5719    3.9313    1.0424 C   0  0  0  1  0  0  0  0  0  0  0  0
   -4.2963    5.0937    0.8570 C   0  0  0  1  0  0  0  0  0  0  0  0
   -3.6399    6.3103    0.7541 C   0  0  0  1  0  0  0  0  0  0  0  0
   -1.3975    2.7098    1.3166 C   0  0  0  1  0  0  0  0  0  0  0  0
   -0.4971    5.2324    1.0794 H   0  0  0  1  0  0  0  0  0  0  0  0
   -4.0646    3.0190    1.1236 H   0  0  0  1  0  0  0  0  0  0  0  0
   -5.3338    5.0556    0.7949 H   0  0  0  1  0  0  0  0  0  0  0  0
   -4.1852    7.1855    0.6187 H   0  0  0  1  0  0  0  0  0  0  0  0
   -0.4147    2.9797    1.6423 H   0  0  0  1  0  0  0  0  0  0  0  0
   -1.8810    2.1347    2.0784 H   0  0  0  1  0  0  0  0  0  0  0  0
  1  4  1  0  0  0  0
  2  4  1  0  0  0  0
  2  5  2  0  0  0  0
  2  6  1  0  0  0  0
  3  4  1  0  0  0  0
  3  7  1  0  0  0  0
  3  8  1  0  0  0  0
  4 26  1  0  0  0  0
  6  9  1  0  0  0  0
  6 12  1  0  0  0  0
  8 10  1  0  0  0  0
  8 11  2  0  0  0  0
  9 13  1  0  0  0  0
  9 14  1  0  0  0  0
  9 15  1  0  0  0  0
 10 16  1  0  0  0  0
 10 17  1  0  0  0  0
 10 18  1  0  0  0  0
 19 20  1  0  0  0  0
 20 21  4  0  0  0  0
 20 25  4  0  0  0  0
 21 22  4  0  0  0  0
 21 27  1  0  0  0  0
 22 23  4  0  0  0  0
 22 26  1  0  0  0  0
 23 24  4  0  0  0  0
 23 28  1  0  0  0  0
 24 25  4  0  0  0  0
 24 29  1  0  0  0  0
 25 30  1  0  0  0  0
 26 31  1  0  0  0  0
 26 32  1  0  0  0  0
M  END
> <BCLConfClusterSize>
1

> <ConfClashScore>
0 

> <ConfOneFourInteractionScore>
-0.981931 

> <ConfScore>
-0.0788885 

> <ConfScorePBest>
0.00546993 

> <ConfTolerance>
0.43492 

> <RosettaParamsInstructions>
M  ROOT 3
M  POLY_N_BB 3
M  POLY_CA_BB 4
M  POLY_C_BB 2
M  POLY_O_BB 5
M  POLY_IGNORE 9 10 11 12 13 14 15 16 17 18 
M  POLY_UPPER 6
M  POLY_LOWER 8
M  POLY_CHG 0
M  POLY_PROPERTIES ALPHA_AA L_AA PROTEIN AROMATIC POLYMER 
M  END

$$$$



 32 32  0  0  0  0  0  0  0  0999 V2000
   -2.7575    1.9215    2.7217 H   0  0  0  1  0  0  0  0  0  0  0  0
   -1.2144    0.5050    2.4418 C   0  0  0  1  0  0  0  0  0  0  0  0
   -1.1170    2.5967    3.7697 N   0  0  0  1  0  0  0  0  0  0  0  0
   -1.6945    1.9480    2.6020 C   0  0  0  1  0  0  0  0  0  0  0  0
   -0.1719    0.1242    2.9727 O   0  0  0  1  0  0  0  0  0  0  0  0
   -1.9635   -0.3313    1.7059 N   0  0  0  1  0  0  0  0  0  0  0  0
   -0.1432    2.6928    3.8242 H   0  0  0  1  0  0  0  0  0  0  0  0
   -1.8681    3.0659    4.7700 C   0  0  0  1  0  0  0  0  0  0  0  0
   -1.5395   -1.7093    1.5073 C   0  0  0  1  0  0  0  0  0  0  0  0
   -1.1136    3.7344    5.9028 C   0  0  0  1  0  0  0  0  0  0  0  0
   -3.0946    2.9709    4.7884 O   0  0  0  1  0  0  0  0  0  0  0  0
   -2.7977   -0.0133    1.3016 H   0  0  0  1  0  0  0  0  0  0  0  0
   -2.0150   -2.1071    0.6352 H   0  0  0  1  0  0  0  0  0  0  0  0
   -1.8142   -2.2933    2.3607 H   0  0  0  1  0  0  0  0  0  0  0  0
   -0.4776   -1.7406    1.3798 H   0  0  0  1  0  0  0  0  0  0  0  0
   -1.1667    4.7971    5.7891 H   0  0  0  1  0  0  0  0  0  0  0  0
   -0.0898    3.4243    5.8810 H   0  0  0  1  0  0  0  0  0  0  0  0
   -1.5521    3.4537    6.8376 H   0  0  0  1  0  0  0  0  0  0  0  0
   -1.6537    7.5575    0.7223 F   0  0  0  1  0  0  0  0  0  0  0  0
   -2.2545    6.3571    0.8321 C   0  0  0  1  0  0  0  0  0  0  0  0
   -1.5311    5.1894    1.0180 C   0  0  0  1  0  0  0  0  0  0  0  0
   -2.1883    3.9779    1.1203 C   0  0  0  1  0  0  0  0  0  0  0  0
   -3.5715    3.9312    1.0424 C   0  0  0  1  0  0  0  0  0  0  0  0
   -4.2931    5.0954    0.8571 C   0  0  0  1  0  0  0  0  0  0  0  0
   -3.6337    6.3104    0.7545 C   0  0  0  1  0  0  0  0  0  0  0  0
   -1.4001    2.7045    1.3170 C   0  0  0  1  0  0  0  0  0  0  0  0
   -0.4935    5.2249    1.0805 H   0  0  0  1  0  0  0  0  0  0  0  0
   -4.0664    3.0201    1.1234 H   0  0  0  1  0  0  0  0  0  0  0  0
   -5.3306    5.0598    0.7946 H   0  0  0  1  0  0  0  0  0  0  0  0
   -4.1768    7.1869    0.6190 H   0  0  0  1  0  0  0  0  0  0  0  0
   -1.6135    2.0539    0.4947 H   0  0  0  1  0  0  0  0  0  0  0  0
   -0.3601    2.9560    1.3129 H   0  0  0  1  0  0  0  0  0  0  0  0
  1  4  1  0  0  0  0
  2  4  1  0  0  0  0
  2  5  2  0  0  0  0
  2  6  1  0  0  0  0
  3  4  1  0  0  0  0
  3  7  1  0  0  0  0
  3  8  1  0  0  0  0
  4 26  1  0  0  0  0
  6  9  1  0  0  0  0
  6 12  1  0  0  0  0
  8 10  1  0  0  0  0
  8 11  2  0  0  0  0
  9 13  1  0  0  0  0
  9 14  1  0  0  0  0
  9 15  1  0  0  0  0
 10 16  1  0  0  0  0
 10 17  1  0  0  0  0
 10 18  1  0  0  0  0
 19 20  1  0  0  0  0
 20 21  4  0  0  0  0
 20 25  4  0  0  0  0
 21 22  4  0  0  0  0
 21 27  1  0  0  0  0
 22 23  4  0  0  0  0
 22 26  1  0  0  0  0
 23 24  4  0  0  0  0
 23 28  1  0  0  0  0
 24 25  4  0  0  0  0
 24 29  1  0  0  0  0
 25 30  1  0  0  0  0
 26 31  1  0  0  0  0
 26 32  1  0  0  0  0
M  END
> <BCLConfClusterSize>
1

> <ConfClashScore>
0 

> <ConfOneFourInteractionScore>
-0.990503 

> <ConfScore>
-0.0788037 

> <ConfScorePBest>
0.00544145 

> <ConfTolerance>
0.488067 

> <RosettaParamsInstructions>
M  ROOT 3
M  POLY_N_BB 3
M  POLY_CA_BB 4
M  POLY_C_BB 2
M  POLY_O_BB 5
M  POLY_IGNORE 9 10 11 12 13 14 15 16 17 18 
M  POLY_UPPER 6
M  POLY_LOWER 8
M  POLY_CHG 0
M  POLY_PROPERTIES ALPHA_AA L_AA PROTEIN AROMATIC POLYMER 
M  END

$$$$



 32 32  0  0  0  0  0  0  0  0999 V2000
   -2.6862    1.2081    0.5598 H   0  0  0  1  0  0  0  0  0  0  0  0
   -1.7698    2.0842   -1.0965 C   0  0  0  1  0  0  0  0  0  0  0  0
   -0.7826    0.4703    0.5219 N   0  0  0  1  0  0  0  0  0  0  0  0
   -1.7082    1.5770    0.3311 C   0  0  0  1  0  0  0  0  0  0  0  0
   -2.7990    2.5470   -1.5602 O   0  0  0  1  0  0  0  0  0  0  0  0
   -0.6299    1.9883   -1.7992 N   0  0  0  1  0  0  0  0  0  0  0  0
   -0.0646    0.5628    1.1824 H   0  0  0  1  0  0  0  0  0  0  0  0
   -0.8776   -0.6673   -0.1722 C   0  0  0  1  0  0  0  0  0  0  0  0
   -0.4383    2.4962   -3.1494 C   0  0  0  1  0  0  0  0  0  0  0  0
    0.2631   -1.6491    0.0128 C   0  0  0  1  0  0  0  0  0  0  0  0
   -1.8226   -0.9198   -0.9185 O   0  0  0  1  0  0  0  0  0  0  0  0
    0.1304    1.5427   -1.3705 H   0  0  0  1  0  0  0  0  0  0  0  0
    0.3935    3.1690   -3.1633 H   0  0  0  1  0  0  0  0  0  0  0  0
   -1.3205    3.0135   -3.4642 H   0  0  0  1  0  0  0  0  0  0  0  0
   -0.2471    1.6793   -3.8136 H   0  0  0  1  0  0  0  0  0  0  0  0
    1.1956   -1.1272   -0.0408 H   0  0  0  1  0  0  0  0  0  0  0  0
    0.2243   -2.3899   -0.7583 H   0  0  0  1  0  0  0  0  0  0  0  0
    0.1742   -2.1228    0.9681 H   0  0  0  1  0  0  0  0  0  0  0  0
   -1.6265    7.5482    0.7251 F   0  0  0  1  0  0  0  0  0  0  0  0
   -2.2604    6.3646    0.8308 C   0  0  0  1  0  0  0  0  0  0  0  0
   -1.5300    5.2012    1.0166 C   0  0  0  1  0  0  0  0  0  0  0  0
   -2.1801    3.9860    1.1199 C   0  0  0  1  0  0  0  0  0  0  0  0
   -3.5630    3.9312    1.0429 C   0  0  0  1  0  0  0  0  0  0  0  0
   -4.2915    5.0910    0.8577 C   0  0  0  1  0  0  0  0  0  0  0  0
   -3.6394    6.3098    0.7542 C   0  0  0  1  0  0  0  0  0  0  0  0
   -1.4405    2.6905    1.3162 C   0  0  0  1  0  0  0  0  0  0  0  0
   -0.4927    5.2429    1.0784 H   0  0  0  1  0  0  0  0  0  0  0  0
   -4.0525    3.0172    1.1246 H   0  0  0  1  0  0  0  0  0  0  0  0
   -5.3289    5.0493    0.7959 H   0  0  0  1  0  0  0  0  0  0  0  0
   -4.1877    7.1831    0.6188 H   0  0  0  1  0  0  0  0  0  0  0  0
   -0.3941    2.9098    1.2749 H   0  0  0  1  0  0  0  0  0  0  0  0
   -1.6904    2.3236    2.2898 H   0  0  0  1  0  0  0  0  0  0  0  0
  1  4  1  0  0  0  0
  2  4  1  0  0  0  0
  2  5  2  0  0  0  0
  2  6  1  0  0  0  0
  3  4  1  0  0  0  0
  3  7  1  0  0  0  0
  3  8  1  0  0  0  0
  4 26  1  0  0  0  0
  6  9  1  0  0  0  0
  6 12  1  0  0  0  0
  8 10  1  0  0  0  0
  8 11  2  0  0  0  0
  9 13  1  0  0  0  0
  9 14  1  0  0  0  0
  9 15  1  0  0  0  0
 10 16  1  0  0  0  0
 10 17  1  0  0  0  0
 10 18  1  0  0  0  0
 19 20  1  0  0  0  0
 20 21  4  0  0  0  0
 20 25  4  0  0  0  0
 21 22  4  0  0  0  0
 21 27  1  0  0  0  0
 22 23  4  0  0  0  0
 22 26  1  0  0  0  0
 23 24  4  0  0  0  0
 23 28  1  0  0  0  0
 24 25  4  0  0  0  0
 24 29  1  0  0  0  0
 25 30  1  0  0  0  0
 26 31  1  0  0  0  0
 26 32  1  0  0  0  0
M  END
> <BCLConfClusterSize>
1

> <ConfClashScore>
0 

> <ConfOneFourInteractionScore>
-0.960318 

> <ConfScore>
-0.0772401 

> <ConfScorePBest>
0.00541297 

> <ConfTolerance>
0.559076 

> <RosettaParamsInstructions>
M  ROOT 3
M  POLY_N_BB 3
M  POLY_CA_BB 4
M  POLY_C_BB 2
M  POLY_O_BB 5
M  POLY_IGNORE 9 10 11 12 13 14 15 16 17 18 
M  POLY_UPPER 6
M  POLY_LOWER 8
M  POLY_CHG 0
M  POLY_PROPERTIES ALPHA_AA L_AA PROTEIN AROMATIC POLYMER 
M  END

$$$$



 32 32  0  0  0  0  0  0  0  0999 V2000
   -0.2752    1.2701    0.2583 H   0  0  0  1  0  0  0  0  0  0  0  0
   -1.8117    1.8703   -1.0465 C   0  0  0  1  0  0  0  0  0  0  0  0
    0.1865    3.1200   -0.5187 N   0  0  0  1  0  0  0  0  0  0  0  0
   -0.7834    2.1820    0.0234 C   0  0  0  1  0  0  0  0  0  0  0  0
   -2.4361    0.8103   -1.0376 O   0  0  0  1  0  0  0  0  0  0  0  0
   -2.0589    2.8443   -1.9366 N   0  0  0  1  0  0  0  0  0  0  0  0
    0.4115    3.9333   -0.0204 H   0  0  0  1  0  0  0  0  0  0  0  0
    0.7741    2.8743   -1.6996 C   0  0  0  1  0  0  0  0  0  0  0  0
   -3.0284    2.6882   -3.0107 C   0  0  0  1  0  0  0  0  0  0  0  0
    1.7790    3.9092   -2.2065 C   0  0  0  1  0  0  0  0  0  0  0  0
    0.4704    1.9090   -2.3994 O   0  0  0  1  0  0  0  0  0  0  0  0
   -1.5694    3.6899   -1.8605 H   0  0  0  1  0  0  0  0  0  0  0  0
   -3.8212    2.0472   -2.6858 H   0  0  0  1  0  0  0  0  0  0  0  0
   -2.5484    2.2569   -3.8642 H   0  0  0  1  0  0  0  0  0  0  0  0
   -3.4284    3.6457   -3.2717 H   0  0  0  1  0  0  0  0  0  0  0  0
    2.6791    3.8444   -1.6315 H   0  0  0  1  0  0  0  0  0  0  0  0
    1.3620    4.8895   -2.1066 H   0  0  0  1  0  0  0  0  0  0  0  0
    1.9991    3.7178   -3.2359 H   0  0  0  1  0  0  0  0  0  0  0  0
   -1.6228    7.5417    0.7261 F   0  0  0  1  0  0  0  0  0  0  0  0
   -2.2608    6.3603    0.8314 C   0  0  0  1  0  0  0  0  0  0  0  0
   -1.5345    5.1943    1.0172 C   0  0  0  1  0  0  0  0  0  0  0  0
   -2.1888    3.9813    1.1199 C   0  0  0  1  0  0  0  0  0  0  0  0
   -3.5719    3.9313    1.0424 C   0  0  0  1  0  0  0  0  0  0  0  0
   -4.2963    5.0937    0.8570 C   0  0  0  1  0  0  0  0  0  0  0  0
   -3.6399    6.3103    0.7541 C   0  0  0  1  0  0  0  0  0  0  0  0
   -1.3975    2.7098    1.3166 C   0  0  0  1  0  0  0  0  0  0  0  0
   -0.4971    5.2324    1.0794 H   0  0  0  1  0  0  0  0  0  0  0  0
   -4.0646    3.0190    1.1236 H   0  0  0  1  0  0  0  0  0  0  0  0
   -5.3338    5.0556    0.7949 H   0  0  0  1  0  0  0  0  0  0  0  0
   -4.1852    7.1855    0.6187 H   0  0  0  1  0  0  0  0  0  0  0  0
   -0.6092    2.9037    2.0136 H   0  0  0  1  0  0  0  0  0  0  0  0
   -2.0499    1.9608    1.7143 H   0  0  0  1  0  0  0  0  0  0  0  0
  1  4  1  0  0  0  0
  2  4  1  0  0  0  0
  2  5  2  0  0  0  0
  2  6  1  0  0  0  0
  3  4  1  0  0  0  0
  3  7  1  0  0  0  0
  3  8  1  0  0  0  0
  4 26  1  0  0  0  0
  6  9  1  0  0  0  0
  6 12  1  0  0  0  0
  8 10  1  0  0  0  0
  8 11  2  0  0  0  0
  9 13  1  0  0  0  0
  9 14  1  0  0  0  0
  9 15  1  0  0  0  0
 10 16  1  0  0  0  0
 10 17  1  0  0  0  0
 10 18  1  0  0  0  0
 19 20  1  0  0  0  0
 20 21  4  0  0  0  0
 20 25  4  0  0  0  0
 21 22  4  0  0  0  0
 21 27  1  0  0  0  0
 22 23  4  0  0  0  0
 22 26  1  0  0  0  0
 23 24  4  0  0  0  0
 23 28  1  0  0  0  0
 24 25  4  0  0  0  0
 24 29  1  0  0  0  0
 25 30  1  0  0  0  0
 26 31  1  0  0  0  0
 26 32  1  0  0  0  0
M  END
> <BCLConfClusterSize>
1

> <ConfClashScore>
0 

> <ConfOneFourInteractionScore>
-0.950605 

> <ConfScore>
-0.0761165 

> <ConfScorePBest>
0.00538449 

> <ConfTolerance>
0.260869 

> <RosettaParamsInstructions>
M  ROOT 3
M  POLY_N_BB 3
M  POLY_CA_BB 4
M  POLY_C_BB 2
M  POLY_O_BB 5
M  POLY_IGNORE 9 10 11 12 13 14 15 16 17 18 
M  POLY_UPPER 6
M  POLY_LOWER 8
M  POLY_CHG 0
M  POLY_PROPERTIES ALPHA_AA L_AA PROTEIN AROMATIC POLYMER 
M  END

$$$$



 32 32  0  0  0  0  0  0  0  0999 V2000
   -0.5841    1.0272    0.3167 H   0  0  0  1  0  0  0  0  0  0  0  0
   -2.5563    1.3487   -0.3892 C   0  0  0  1  0  0  0  0  0  0  0  0
   -0.5713    2.6515   -0.9762 N   0  0  0  1  0  0  0  0  0  0  0  0
   -1.2054    1.8625    0.0694 C   0  0  0  1  0  0  0  0  0  0  0  0
   -3.2829    2.0139   -1.1263 O   0  0  0  1  0  0  0  0  0  0  0  0
   -2.8586    0.1292    0.0836 N   0  0  0  1  0  0  0  0  0  0  0  0
   -1.1361    3.0875   -1.6480 H   0  0  0  1  0  0  0  0  0  0  0  0
    0.7519    2.8018   -1.0520 C   0  0  0  1  0  0  0  0  0  0  0  0
   -4.0908   -0.5588   -0.2716 C   0  0  0  1  0  0  0  0  0  0  0  0
    1.2721    3.8648   -2.0280 C   0  0  0  1  0  0  0  0  0  0  0  0
    1.5414    2.1923   -0.3316 O   0  0  0  1  0  0  0  0  0  0  0  0
   -2.2276   -0.3131    0.6890 H   0  0  0  1  0  0  0  0  0  0  0  0
   -4.2005   -0.5684   -1.3359 H   0  0  0  1  0  0  0  0  0  0  0  0
   -4.9229   -0.0494    0.1679 H   0  0  0  1  0  0  0  0  0  0  0  0
   -4.0551   -1.5644    0.0922 H   0  0  0  1  0  0  0  0  0  0  0  0
    0.4821    4.5446   -2.2699 H   0  0  0  1  0  0  0  0  0  0  0  0
    1.6190    3.3890   -2.9214 H   0  0  0  1  0  0  0  0  0  0  0  0
    2.0780    4.4021   -1.5734 H   0  0  0  1  0  0  0  0  0  0  0  0
   -1.6228    7.5417    0.7261 F   0  0  0  1  0  0  0  0  0  0  0  0
   -2.2608    6.3603    0.8314 C   0  0  0  1  0  0  0  0  0  0  0  0
   -1.5345    5.1943    1.0172 C   0  0  0  1  0  0  0  0  0  0  0  0
   -2.1888    3.9813    1.1199 C   0  0  0  1  0  0  0  0  0  0  0  0
   -3.5719    3.9313    1.0424 C   0  0  0  1  0  0  0  0  0  0  0  0
   -4.2963    5.0937    0.8570 C   0  0  0  1  0  0  0  0  0  0  0  0
   -3.6399    6.3103    0.7541 C   0  0  0  1  0  0  0  0  0  0  0  0
   -1.3975    2.7098    1.3166 C   0  0  0  1  0  0  0  0  0  0  0  0
   -0.4971    5.2324    1.0794 H   0  0  0  1  0  0  0  0  0  0  0  0
   -4.0646    3.0190    1.1236 H   0  0  0  1  0  0  0  0  0  0  0  0
   -5.3338    5.0556    0.7949 H   0  0  0  1  0  0  0  0  0  0  0  0
   -4.1852    7.1855    0.6187 H   0  0  0  1  0  0  0  0  0  0  0  0
   -0.4297    2.9772    1.6862 H   0  0  0  1  0  0  0  0  0  0  0  0
   -1.9061    2.1139    2.0453 H   0  0  0  1  0  0  0  0  0  0  0  0
  1  4  1  0  0  0  0
  2  4  1  0  0  0  0
  2  5  2  0  0  0  0
  2  6  1  0  0  0  0
  3  4  1  0  0  0  0
  3  7  1  0  0  0  0
  3  8  1  0  0  0  0
  4 26  1  0  0  0  0
  6  9  1  0  0  0  0
  6 12  1  0  0  0  0
  8 10  1  0  0  0  0
  8 11  2  0  0  0  0
  9 13  1  0  0  0  0
  9 14  1  0  0  0  0
  9 15  1  0  0  0  0
 10 16  1  0  0  0  0
 10 17  1  0  0  0  0
 10 18  1  0  0  0  0
 19 20  1  0  0  0  0
 20 21  4  0  0  0  0
 20 25  4  0  0  0  0
 21 22  4  0  0  0  0
 21 27  1  0  0  0  0
 22 23  4  0  0  0  0
 22 26  1  0  0  0  0
 23 24  4  0  0  0  0
 23 28  1  0  0  0  0
 24 25  4  0  0  0  0
 24 29  1  0  0  0  0
 25 30  1  0  0  0  0
 26 31  1  0  0  0  0
 26 32  1  0  0  0  0
M  END
> <BCLConfClusterSize>
1

> <ConfClashScore>
0 

> <ConfOneFourInteractionScore>
-0.980789 

> <ConfScore>
-0.075017 

> <ConfScorePBest>
0.00535601 

> <ConfTolerance>
0.341883 

> <RosettaParamsInstructions>
M  ROOT 3
M  POLY_N_BB 3
M  POLY_CA_BB 4
M  POLY_C_BB 2
M  POLY_O_BB 5
M  POLY_IGNORE 9 10 11 12 13 14 15 16 17 18 
M  POLY_UPPER 6
M  POLY_LOWER 8
M  POLY_CHG 0
M  POLY_PROPERTIES ALPHA_AA L_AA PROTEIN AROMATIC POLYMER 
M  END

$$$$



 32 32  0  0  0  0  0  0  0  0999 V2000
   -2.8208    1.4647    2.2252 H   0  0  0  1  0  0  0  0  0  0  0  0
   -0.9333    0.6332    2.6360 C   0  0  0  1  0  0  0  0  0  0  0  0
   -1.9576    2.6273    3.6862 N   0  0  0  1  0  0  0  0  0  0  0  0
   -1.8475    1.8356    2.4701 C   0  0  0  1  0  0  0  0  0  0  0  0
    0.0537    0.6584    3.3485 O   0  0  0  1  0  0  0  0  0  0  0  0
   -1.2182   -0.4947    1.9789 N   0  0  0  1  0  0  0  0  0  0  0  0
   -1.6876    3.5691    3.6635 H   0  0  0  1  0  0  0  0  0  0  0  0
   -2.4160    2.1123    4.8380 C   0  0  0  1  0  0  0  0  0  0  0  0
   -0.3833   -1.6828    2.0755 C   0  0  0  1  0  0  0  0  0  0  0  0
   -2.3075    3.0114    6.0487 C   0  0  0  1  0  0  0  0  0  0  0  0
   -2.8963    0.9851    4.9223 O   0  0  0  1  0  0  0  0  0  0  0  0
   -2.0171   -0.5229    1.4120 H   0  0  0  1  0  0  0  0  0  0  0  0
   -0.5213   -2.2881    1.2041 H   0  0  0  1  0  0  0  0  0  0  0  0
   -0.6587   -2.2420    2.9452 H   0  0  0  1  0  0  0  0  0  0  0  0
    0.6437   -1.3917    2.1484 H   0  0  0  1  0  0  0  0  0  0  0  0
   -3.0239    2.7089    6.7837 H   0  0  0  1  0  0  0  0  0  0  0  0
   -2.4993    4.0235    5.7594 H   0  0  0  1  0  0  0  0  0  0  0  0
   -1.3223    2.9381    6.4599 H   0  0  0  1  0  0  0  0  0  0  0  0
   -1.5924    7.5248    0.7300 F   0  0  0  1  0  0  0  0  0  0  0  0
   -2.2671    6.3635    0.8306 C   0  0  0  1  0  0  0  0  0  0  0  0
   -1.5379    5.1994    1.0164 C   0  0  0  1  0  0  0  0  0  0  0  0
   -2.1893    3.9848    1.1194 C   0  0  0  1  0  0  0  0  0  0  0  0
   -3.5723    3.9314    1.0423 C   0  0  0  1  0  0  0  0  0  0  0  0
   -4.2996    5.0921    0.8570 C   0  0  0  1  0  0  0  0  0  0  0  0
   -3.6461    6.3102    0.7537 C   0  0  0  1  0  0  0  0  0  0  0  0
   -1.3949    2.7152    1.3161 C   0  0  0  1  0  0  0  0  0  0  0  0
   -0.5006    5.2399    1.0783 H   0  0  0  1  0  0  0  0  0  0  0  0
   -4.0627    3.0180    1.1239 H   0  0  0  1  0  0  0  0  0  0  0  0
   -5.3369    5.0515    0.7952 H   0  0  0  1  0  0  0  0  0  0  0  0
   -4.1935    7.1841    0.6183 H   0  0  0  1  0  0  0  0  0  0  0  0
   -1.4633    2.1403    0.4163 H   0  0  0  1  0  0  0  0  0  0  0  0
   -0.3747    2.9877    1.4891 H   0  0  0  1  0  0  0  0  0  0  0  0
  1  4  1  0  0  0  0
  2  4  1  0  0  0  0
  2  5  2  0  0  0  0
  2  6  1  0  0  0  0
  3  4  1  0  0  0  0
  3  7  1  0  0  0  0
  3  8  1  0  0  0  0
  4 26  1  0  0  0  0
  6  9  1  0  0  0  0
  6 12  1  0  0  0  0
  8 10  1  0  0  0  0
  8 11  2  0  0  0  0
  9 13  1  0  0  0  0
  9 14  1  0  0  0  0
  9 15  1  0  0  0  0
 10 16  1  0  0  0  0
 10 17  1  0  0  0  0
 10 18  1  0  0  0  0
 19 20  1  0  0  0  0
 20 21  4  0  0  0  0
 20 25  4  0  0  0  0
 21 22  4  0  0  0  0
 21 27  1  0  0  0  0
 22 23  4  0  0  0  0
 22 26  1  0  0  0  0
 23 24  4  0  0  0  0
 23 28  1  0  0  0  0
 24 25  4  0  0  0  0
 24 29  1  0  0  0  0
 25 30  1  0  0  0  0
 26 31  1  0  0  0  0
 26 32  1  0  0  0  0
M  END
> <BCLConfClusterSize>
1

> <ConfClashScore>
0 

> <ConfOneFourInteractionScore>
-0.985807 

> <ConfScore>
-0.0723471 

> <ConfScorePBest>
0.00532753 

> <ConfTolerance>
0.510355 

> <RosettaParamsInstructions>
M  ROOT 3
M  POLY_N_BB 3
M  POLY_CA_BB 4
M  POLY_C_BB 2
M  POLY_O_BB 5
M  POLY_IGNORE 9 10 11 12 13 14 15 16 17 18 
M  POLY_UPPER 6
M  POLY_LOWER 8
M  POLY_CHG 0
M  POLY_PROPERTIES ALPHA_AA L_AA PROTEIN AROMATIC POLYMER 
M  END

$$$$



 32 32  0  0  0  0  0  0  0  0999 V2000
   -0.7779    1.3544    2.7828 H   0  0  0  1  0  0  0  0  0  0  0  0
   -0.8299    3.2199    3.7223 C   0  0  0  1  0  0  0  0  0  0  0  0
   -2.7518    1.7461    3.1279 N   0  0  0  1  0  0  0  0  0  0  0  0
   -1.4232    2.2075    2.7542 C   0  0  0  1  0  0  0  0  0  0  0  0
   -1.5094    4.1018    4.2214 O   0  0  0  1  0  0  0  0  0  0  0  0
    0.4795    3.0392    3.9566 N   0  0  0  1  0  0  0  0  0  0  0  0
   -3.3833    2.3872    3.5160 H   0  0  0  1  0  0  0  0  0  0  0  0
   -3.1406    0.4789    2.9604 C   0  0  0  1  0  0  0  0  0  0  0  0
    1.2736    3.9971    4.7115 C   0  0  0  1  0  0  0  0  0  0  0  0
   -4.5706    0.1704    3.3594 C   0  0  0  1  0  0  0  0  0  0  0  0
   -2.3999   -0.3954    2.5125 O   0  0  0  1  0  0  0  0  0  0  0  0
    0.9159    2.2343    3.6072 H   0  0  0  1  0  0  0  0  0  0  0  0
    0.8305    4.9680    4.6343 H   0  0  0  1  0  0  0  0  0  0  0  0
    2.2674    4.0264    4.3161 H   0  0  0  1  0  0  0  0  0  0  0  0
    1.3067    3.7012    5.7393 H   0  0  0  1  0  0  0  0  0  0  0  0
   -4.6454   -0.8552    3.6554 H   0  0  0  1  0  0  0  0  0  0  0  0
   -5.2193    0.3495    2.5276 H   0  0  0  1  0  0  0  0  0  0  0  0
   -4.8560    0.7990    4.1769 H   0  0  0  1  0  0  0  0  0  0  0  0
   -1.6228    7.5417    0.7261 F   0  0  0  1  0  0  0  0  0  0  0  0
   -2.2608    6.3603    0.8314 C   0  0  0  1  0  0  0  0  0  0  0  0
   -1.5345    5.1943    1.0172 C   0  0  0  1  0  0  0  0  0  0  0  0
   -2.1888    3.9813    1.1199 C   0  0  0  1  0  0  0  0  0  0  0  0
   -3.5719    3.9313    1.0424 C   0  0  0  1  0  0  0  0  0  0  0  0
   -4.2963    5.0937    0.8570 C   0  0  0  1  0  0  0  0  0  0  0  0
   -3.6399    6.3103    0.7541 C   0  0  0  1  0  0  0  0  0  0  0  0
   -1.3975    2.7098    1.3166 C   0  0  0  1  0  0  0  0  0  0  0  0
   -0.4971    5.2324    1.0794 H   0  0  0  1  0  0  0  0  0  0  0  0
   -4.0646    3.0190    1.1236 H   0  0  0  1  0  0  0  0  0  0  0  0
   -5.3338    5.0556    0.7949 H   0  0  0  1  0  0  0  0  0  0  0  0
   -4.1852    7.1855    0.6187 H   0  0  0  1  0  0  0  0  0  0  0  0
   -1.8086    1.9515    0.6834 H   0  0  0  1  0  0  0  0  0  0  0  0
   -0.3810    2.8949    1.0385 H   0  0  0  1  0  0  0  0  0  0  0  0
  1  4  1  0  0  0  0
  2  4  1  0  0  0  0
  2  5  2  0  0  0  0
  2  6  1  0  0  0  0
  3  4  1  0  0  0  0
  3  7  1  0  0  0  0
  3  8  1  0  0  0  0
  4 26  1  0  0  0  0
  6  9  1  0  0  0  0
  6 12  1  0  0  0  0
  8 10  1  0  0  0  0
  8 11  2  0  0  0  0
  9 13  1  0  0  0  0
  9 14  1  0  0  0  0
  9 15  1  0  0  0  0
 10 16  1  0  0  0  0
 10 17  1  0  0  0  0
 10 18  1  0  0  0  0
 19 20  1  0  0  0  0
 20 21  4  0  0  0  0
 20 25  4  0  0  0  0
 21 22  4  0  0  0  0
 21 27  1  0  0  0  0
 22 23  4  0  0  0  0
 22 26  1  0  0  0  0
 23 24  4  0  0  0  0
 23 28  1  0  0  0  0
 24 25  4  0  0  0  0
 24 29  1  0  0  0  0
 25 30  1  0  0  0  0
 26 31  1  0  0  0  0
 26 32  1  0  0  0  0
M  END
> <BCLConfClusterSize>
1

> <ConfClashScore>
0 

> <ConfOneFourInteractionScore>
-0.987258 

> <ConfScore>
-0.0700528 

> <ConfScorePBest>
0.00529905 

> <ConfTolerance>
0.347528 

> <RosettaParamsInstructions>
M  ROOT 3
M  POLY_N_BB 3
M  POLY_CA_BB 4
M  POLY_C_BB 2
M  POLY_O_BB 5
M  POLY_IGNORE 9 10 11 12 13 14 15 16 17 18 
M  POLY_UPPER 6
M  POLY_LOWER 8
M  POLY_CHG 0
M  POLY_PROPERTIES ALPHA_AA L_AA PROTEIN AROMATIC POLYMER 
M  END

$$$$



 32 32  0  0  0  0  0  0  0  0999 V2000
   -0.4391    3.3017    3.0954 H   0  0  0  1  0  0  0  0  0  0  0  0
   -2.2479    2.3917    3.6544 C   0  0  0  1  0  0  0  0  0  0  0  0
   -0.1869    1.2733    2.8724 N   0  0  0  1  0  0  0  0  0  0  0  0
   -1.0178    2.4623    2.7706 C   0  0  0  1  0  0  0  0  0  0  0  0
   -3.1033    1.5369    3.4926 O   0  0  0  1  0  0  0  0  0  0  0  0
   -2.2872    3.3365    4.5951 N   0  0  0  1  0  0  0  0  0  0  0  0
   -0.5126    0.4341    2.4850 H   0  0  0  1  0  0  0  0  0  0  0  0
    1.0052    1.2852    3.4757 C   0  0  0  1  0  0  0  0  0  0  0  0
   -3.4347    3.6197    5.4442 C   0  0  0  1  0  0  0  0  0  0  0  0
    1.7731   -0.0219    3.4428 C   0  0  0  1  0  0  0  0  0  0  0  0
    1.4659    2.2814    4.0267 O   0  0  0  1  0  0  0  0  0  0  0  0
   -1.4826    3.8810    4.7243 H   0  0  0  1  0  0  0  0  0  0  0  0
   -3.9643    2.7116    5.6435 H   0  0  0  1  0  0  0  0  0  0  0  0
   -4.0843    4.3094    4.9470 H   0  0  0  1  0  0  0  0  0  0  0  0
   -3.0992    4.0463    6.3663 H   0  0  0  1  0  0  0  0  0  0  0  0
    1.1892   -0.7909    3.9039 H   0  0  0  1  0  0  0  0  0  0  0  0
    2.6948    0.0928    3.9741 H   0  0  0  1  0  0  0  0  0  0  0  0
    1.9772   -0.2899    2.4272 H   0  0  0  1  0  0  0  0  0  0  0  0
   -1.6228    7.5417    0.7261 F   0  0  0  1  0  0  0  0  0  0  0  0
   -2.2608    6.3603    0.8314 C   0  0  0  1  0  0  0  0  0  0  0  0
   -1.5345    5.1943    1.0172 C   0  0  0  1  0  0  0  0  0  0  0  0
   -2.1888    3.9813    1.1199 C   0  0  0  1  0  0  0  0  0  0  0  0
   -3.5719    3.9313    1.0424 C   0  0  0  1  0  0  0  0  0  0  0  0
   -4.2963    5.0937    0.8570 C   0  0  0  1  0  0  0  0  0  0  0  0
   -3.6399    6.3103    0.7541 C   0  0  0  1  0  0  0  0  0  0  0  0
   -1.3975    2.7098    1.3166 C   0  0  0  1  0  0  0  0  0  0  0  0
   -0.4971    5.2324    1.0794 H   0  0  0  1  0  0  0  0  0  0  0  0
   -4.0646    3.0190    1.1236 H   0  0  0  1  0  0  0  0  0  0  0  0
   -5.3338    5.0556    0.7949 H   0  0  0  1  0  0  0  0  0  0  0  0
   -4.1852    7.1855    0.6187 H   0  0  0  1  0  0  0  0  0  0  0  0
   -1.9869    1.8853    0.9734 H   0  0  0  1  0  0  0  0  0  0  0  0
   -0.5007    2.7736    0.7365 H   0  0  0  1  0  0  0  0  0  0  0  0
  1  4  1  0  0  0  0
  2  4  1  0  0  0  0
  2  5  2  0  0  0  0
  2  6  1  0  0  0  0
  3  4  1  0  0  0  0
  3  7  1  0  0  0  0
  3  8  1  0  0  0  0
  4 26  1  0  0  0  0
  6  9  1  0  0  0  0
  6 12  1  0  0  0  0
  8 10  1  0  0  0  0
  8 11  2  0  0  0  0
  9 13  1  0  0  0  0
  9 14  1  0  0  0  0
  9 15  1  0  0  0  0
 10 16  1  0  0  0  0
 10 17  1  0  0  0  0
 10 18  1  0  0  0  0
 19 20  1  0  0  0  0
 20 21  4  0  0  0  0
 20 25  4  0  0  0  0
 21 22  4  0  0  0  0
 21 27  1  0  0  0  0
 22 23  4  0  0  0  0
 22 26  1  0  0  0  0
 23 24  4  0  0  0  0
 23 28  1  0  0  0  0
 24 25  4  0  0  0  0
 24 29  1  0  0  0  0
 25 30  1  0  0  0  0
 26 31  1  0  0  0  0
 26 32  1  0  0  0  0
M  END
> <BCLConfClusterSize>
1

> <ConfClashScore>
0 

> <ConfOneFourInteractionScore>
-0.978127 

> <ConfScore>
-0.0684579 

> <ConfScorePBest>
0.00527057 

> <ConfTolerance>
0.254127 

> <RosettaParamsInstructions>
M  ROOT 3
M  POLY_N_BB 3
M  POLY_CA_BB 4
M  POLY_C_BB 2
M  POLY_O_BB 5
M  POLY_IGNORE 9 10 11 12 13 14 15 16 17 18 
M  POLY_UPPER 6
M  POLY_LOWER 8
M  POLY_CHG 0
M  POLY_PROPERTIES ALPHA_AA L_AA PROTEIN AROMATIC POLYMER 
M  END

$$$$



 32 32  0  0  0  0  0  0  0  0999 V2000
   -0.7174    0.9926    0.2561 H   0  0  0  1  0  0  0  0  0  0  0  0
   -2.6694    1.5344   -0.4142 C   0  0  0  1  0  0  0  0  0  0  0  0
   -0.5669    2.6655   -0.9790 N   0  0  0  1  0  0  0  0  0  0  0  0
   -1.2583    1.8903    0.0403 C   0  0  0  1  0  0  0  0  0  0  0  0
   -3.2356    0.5151   -0.0216 O   0  0  0  1  0  0  0  0  0  0  0  0
   -3.2048    2.4277   -1.2613 N   0  0  0  1  0  0  0  0  0  0  0  0
   -0.1679    3.5304   -0.7486 H   0  0  0  1  0  0  0  0  0  0  0  0
   -0.4753    2.2013   -2.2261 C   0  0  0  1  0  0  0  0  0  0  0  0
   -4.5848    2.3389   -1.7148 C   0  0  0  1  0  0  0  0  0  0  0  0
    0.2300    3.1077   -3.2162 C   0  0  0  1  0  0  0  0  0  0  0  0
   -0.9279    1.1101   -2.5697 O   0  0  0  1  0  0  0  0  0  0  0  0
   -2.6470    3.1654   -1.5855 H   0  0  0  1  0  0  0  0  0  0  0  0
   -5.2300    2.2067   -0.8715 H   0  0  0  1  0  0  0  0  0  0  0  0
   -4.6892    1.5055   -2.3776 H   0  0  0  1  0  0  0  0  0  0  0  0
   -4.8497    3.2393   -2.2286 H   0  0  0  1  0  0  0  0  0  0  0  0
    1.2131    3.3315   -2.8580 H   0  0  0  1  0  0  0  0  0  0  0  0
   -0.3249    4.0160   -3.3257 H   0  0  0  1  0  0  0  0  0  0  0  0
    0.2994    2.6151   -4.1635 H   0  0  0  1  0  0  0  0  0  0  0  0
   -1.6228    7.5417    0.7261 F   0  0  0  1  0  0  0  0  0  0  0  0
   -2.2608    6.3603    0.8314 C   0  0  0  1  0  0  0  0  0  0  0  0
   -1.5345    5.1943    1.0172 C   0  0  0  1  0  0  0  0  0  0  0  0
   -2.1888    3.9813    1.1199 C   0  0  0  1  0  0  0  0  0  0  0  0
   -3.5719    3.9313    1.0424 C   0  0  0  1  0  0  0  0  0  0  0  0
   -4.2963    5.0937    0.8570 C   0  0  0  1  0  0  0  0  0  0  0  0
   -3.6399    6.3103    0.7541 C   0  0  0  1  0  0  0  0  0  0  0  0
   -1.3975    2.7098    1.3166 C   0  0  0  1  0  0  0  0  0  0  0  0
   -0.4971    5.2324    1.0794 H   0  0  0  1  0  0  0  0  0  0  0  0
   -4.0646    3.0190    1.1236 H   0  0  0  1  0  0  0  0  0  0  0  0
   -5.3338    5.0556    0.7949 H   0  0  0  1  0  0  0  0  0  0  0  0
   -4.1852    7.1855    0.6187 H   0  0  0  1  0  0  0  0  0  0  0  0
   -0.4190    2.9680    1.6640 H   0  0  0  1  0  0  0  0  0  0  0  0
   -1.8918    2.1116    2.0532 H   0  0  0  1  0  0  0  0  0  0  0  0
  1  4  1  0  0  0  0
  2  4  1  0  0  0  0
  2  5  2  0  0  0  0
  2  6  1  0  0  0  0
  3  4  1  0  0  0  0
  3  7  1  0  0  0  0
  3  8  1  0  0  0  0
  4 26  1  0  0  0  0
  6  9  1  0  0  0  0
  6 12  1  0  0  0  0
  8 10  1  0  0  0  0
  8 11  2  0  0  0  0
  9 13  1  0  0  0  0
  9 14  1  0  0  0  0
  9 15  1  0  0  0  0
 10 16  1  0  0  0  0
 10 17  1  0  0  0  0
 10 18  1  0  0  0  0
 19 20  1  0  0  0  0
 20 21  4  0  0  0  0
 20 25  4  0  0  0  0
 21 22  4  0  0  0  0
 21 27  1  0  0  0  0
 22 23  4  0  0  0  0
 22 26  1  0  0  0  0
 23 24  4  0  0  0  0
 23 28  1  0  0  0  0
 24 25  4  0  0  0  0
 24 29  1  0  0  0  0
 25 30  1  0  0  0  0
 26 31  1  0  0  0  0
 26 32  1  0  0  0  0
M  END
> <BCLConfClusterSize>
1

> <ConfClashScore>
0 

> <ConfOneFourInteractionScore>
-0.938406 

> <ConfScore>
-0.0645995 

> <ConfScorePBest>
0.00524209 

> <ConfTolerance>
0.271629 

> <RosettaParamsInstructions>
M  ROOT 3
M  POLY_N_BB 3
M  POLY_CA_BB 4
M  POLY_C_BB 2
M  POLY_O_BB 5
M  POLY_IGNORE 9 10 11 12 13 14 15 16 17 18 
M  POLY_UPPER 6
M  POLY_LOWER 8
M  POLY_CHG 0
M  POLY_PROPERTIES ALPHA_AA L_AA PROTEIN AROMATIC POLYMER 
M  END

$$$$



 32 32  0  0  0  0  0  0  0  0999 V2000
   -0.3260    1.5752    2.7143 H   0  0  0  1  0  0  0  0  0  0  0  0
   -0.0965    3.5367    3.4090 C   0  0  0  1  0  0  0  0  0  0  0  0
   -2.1170    2.1156    3.5769 N   0  0  0  1  0  0  0  0  0  0  0  0
   -0.9393    2.4513    2.7487 C   0  0  0  1  0  0  0  0  0  0  0  0
    1.1286    3.5343    3.3209 O   0  0  0  1  0  0  0  0  0  0  0  0
   -0.7759    4.4727    4.0778 N   0  0  0  1  0  0  0  0  0  0  0  0
   -3.0122    2.2945    3.2206 H   0  0  0  1  0  0  0  0  0  0  0  0
   -2.0033    1.5766    4.7941 C   0  0  0  1  0  0  0  0  0  0  0  0
   -0.1970    5.6899    4.6267 C   0  0  0  1  0  0  0  0  0  0  0  0
   -3.3076    1.2970    5.5152 C   0  0  0  1  0  0  0  0  0  0  0  0
   -0.9185    1.3169    5.3131 O   0  0  0  1  0  0  0  0  0  0  0  0
   -1.7364    4.3288    4.2086 H   0  0  0  1  0  0  0  0  0  0  0  0
    0.2181    6.2769    3.8342 H   0  0  0  1  0  0  0  0  0  0  0  0
    0.5742    5.4352    5.3233 H   0  0  0  1  0  0  0  0  0  0  0  0
   -0.9579    6.2526    5.1261 H   0  0  0  1  0  0  0  0  0  0  0  0
   -3.9331    2.1640    5.4710 H   0  0  0  1  0  0  0  0  0  0  0  0
   -3.1049    1.0555    6.5376 H   0  0  0  1  0  0  0  0  0  0  0  0
   -3.8051    0.4743    5.0457 H   0  0  0  1  0  0  0  0  0  0  0  0
   -1.6190    7.5350    0.7271 F   0  0  0  1  0  0  0  0  0  0  0  0
   -2.2609    6.3557    0.8319 C   0  0  0  1  0  0  0  0  0  0  0  0
   -1.5384    5.1873    1.0178 C   0  0  0  1  0  0  0  0  0  0  0  0
   -2.1967    3.9764    1.1200 C   0  0  0  1  0  0  0  0  0  0  0  0
   -3.5799    3.9309    1.0419 C   0  0  0  1  0  0  0  0  0  0  0  0
   -4.3005    5.0957    0.8565 C   0  0  0  1  0  0  0  0  0  0  0  0
   -3.6401    6.3101    0.7541 C   0  0  0  1  0  0  0  0  0  0  0  0
   -1.3608    2.7337    1.3160 C   0  0  0  1  0  0  0  0  0  0  0  0
   -0.5009    5.2220    1.0804 H   0  0  0  1  0  0  0  0  0  0  0  0
   -4.0756    3.0202    1.1228 H   0  0  0  1  0  0  0  0  0  0  0  0
   -5.3380    5.0610    0.7940 H   0  0  0  1  0  0  0  0  0  0  0  0
   -4.1824    7.1871    0.6186 H   0  0  0  1  0  0  0  0  0  0  0  0
   -1.9282    1.8960    0.9676 H   0  0  0  1  0  0  0  0  0  0  0  0
   -0.4746    2.8354    0.7251 H   0  0  0  1  0  0  0  0  0  0  0  0
  1  4  1  0  0  0  0
  2  4  1  0  0  0  0
  2  5  2  0  0  0  0
  2  6  1  0  0  0  0
  3  4  1  0  0  0  0
  3  7  1  0  0  0  0
  3  8  1  0  0  0  0
  4 26  1  0  0  0  0
  6  9  1  0  0  0  0
  6 12  1  0  0  0  0
  8 10  1  0  0  0  0
  8 11  2  0  0  0  0
  9 13  1  0  0  0  0
  9 14  1  0  0  0  0
  9 15  1  0  0  0  0
 10 16  1  0  0  0  0
 10 17  1  0  0  0  0
 10 18  1  0  0  0  0
 19 20  1  0  0  0  0
 20 21  4  0  0  0  0
 20 25  4  0  0  0  0
 21 22  4  0  0  0  0
 21 27  1  0  0  0  0
 22 23  4  0  0  0  0
 22 26  1  0  0  0  0
 23 24  4  0  0  0  0
 23 28  1  0  0  0  0
 24 25  4  0  0  0  0
 24 29  1  0  0  0  0
 25 30  1  0  0  0  0
 26 31  1  0  0  0  0
 26 32  1  0  0  0  0
M  END
> <BCLConfClusterSize>
1

> <ConfClashScore>
0 

> <ConfOneFourInteractionScore>
-0.950605 

> <ConfScore>
-0.0633442 

> <ConfScorePBest>
0.00521361 

> <ConfTolerance>
0.222396 

> <RosettaParamsInstructions>
M  ROOT 3
M  POLY_N_BB 3
M  POLY_CA_BB 4
M  POLY_C_BB 2
M  POLY_O_BB 5
M  POLY_IGNORE 9 10 11 12 13 14 15 16 17 18 
M  POLY_UPPER 6
M  POLY_LOWER 8
M  POLY_CHG 0
M  POLY_PROPERTIES ALPHA_AA L_AA PROTEIN AROMATIC POLYMER 
M  END

$$$$



 32 32  0  0  0  0  0  0  0  0999 V2000
   -0.2514    1.2950    0.1937 H   0  0  0  1  0  0  0  0  0  0  0  0
   -1.7482    2.1386   -1.0695 C   0  0  0  1  0  0  0  0  0  0  0  0
    0.3315    3.2207   -0.3473 N   0  0  0  1  0  0  0  0  0  0  0  0
   -0.6921    2.2552    0.0240 C   0  0  0  1  0  0  0  0  0  0  0  0
   -2.1343    3.1193   -1.6839 O   0  0  0  1  0  0  0  0  0  0  0  0
   -2.2108    0.9067   -1.3006 N   0  0  0  1  0  0  0  0  0  0  0  0
    0.1158    3.9059   -1.0139 H   0  0  0  1  0  0  0  0  0  0  0  0
    1.5671    3.2054    0.1944 C   0  0  0  1  0  0  0  0  0  0  0  0
   -3.3116    0.6488   -2.2169 C   0  0  0  1  0  0  0  0  0  0  0  0
    2.5837    4.1763   -0.3371 C   0  0  0  1  0  0  0  0  0  0  0  0
    1.8556    2.4207    1.0970 O   0  0  0  1  0  0  0  0  0  0  0  0
   -1.7943    0.1504   -0.8370 H   0  0  0  1  0  0  0  0  0  0  0  0
   -3.9436    1.5108   -2.2674 H   0  0  0  1  0  0  0  0  0  0  0  0
   -3.8782   -0.1886   -1.8667 H   0  0  0  1  0  0  0  0  0  0  0  0
   -2.9224    0.4347   -3.1903 H   0  0  0  1  0  0  0  0  0  0  0  0
    2.9724    3.8139   -1.2658 H   0  0  0  1  0  0  0  0  0  0  0  0
    3.3821    4.2781    0.3680 H   0  0  0  1  0  0  0  0  0  0  0  0
    2.1204    5.1283   -0.4919 H   0  0  0  1  0  0  0  0  0  0  0  0
   -1.5886    7.5181    0.7310 F   0  0  0  1  0  0  0  0  0  0  0  0
   -2.2671    6.3589    0.8311 C   0  0  0  1  0  0  0  0  0  0  0  0
   -1.5418    5.1924    1.0170 C   0  0  0  1  0  0  0  0  0  0  0  0
   -2.1972    3.9799    1.1195 C   0  0  0  1  0  0  0  0  0  0  0  0
   -3.5803    3.9310    1.0419 C   0  0  0  1  0  0  0  0  0  0  0  0
   -4.3037    5.0941    0.8565 C   0  0  0  1  0  0  0  0  0  0  0  0
   -3.6462    6.3101    0.7537 C   0  0  0  1  0  0  0  0  0  0  0  0
   -1.3583    2.7392    1.3155 C   0  0  0  1  0  0  0  0  0  0  0  0
   -0.5044    5.2295    1.0793 H   0  0  0  1  0  0  0  0  0  0  0  0
   -4.0737    3.0192    1.1230 H   0  0  0  1  0  0  0  0  0  0  0  0
   -5.3412    5.0569    0.7942 H   0  0  0  1  0  0  0  0  0  0  0  0
   -4.1907    7.1858    0.6183 H   0  0  0  1  0  0  0  0  0  0  0  0
   -0.5941    2.9546    2.0328 H   0  0  0  1  0  0  0  0  0  0  0  0
   -1.9875    1.9579    1.6876 H   0  0  0  1  0  0  0  0  0  0  0  0
  1  4  1  0  0  0  0
  2  4  1  0  0  0  0
  2  5  2  0  0  0  0
  2  6  1  0  0  0  0
  3  4  1  0  0  0  0
  3  7  1  0  0  0  0
  3  8  1  0  0  0  0
  4 26  1  0  0  0  0
  6  9  1  0  0  0  0
  6 12  1  0  0  0  0
  8 10  1  0  0  0  0
  8 11  2  0  0  0  0
  9 13  1  0  0  0  0
  9 14  1  0  0  0  0
  9 15  1  0  0  0  0
 10 16  1  0  0  0  0
 10 17  1  0  0  0  0
 10 18  1  0  0  0  0
 19 20  1  0  0  0  0
 20 21  4  0  0  0  0
 20 25  4  0  0  0  0
 21 22  4  0  0  0  0
 21 27  1  0  0  0  0
 22 23  4  0  0  0  0
 22 26  1  0  0  0  0
 23 24  4  0  0  0  0
 23 28  1  0  0  0  0
 24 25  4  0  0  0  0
 24 29  1  0  0  0  0
 25 30  1  0  0  0  0
 26 31  1  0  0  0  0
 26 32  1  0  0  0  0
M  END
> <BCLConfClusterSize>
1

> <ConfClashScore>
0 

> <ConfOneFourInteractionScore>
-0.987258 

> <ConfScore>
-0.0607852 

> <ConfScorePBest>
0.00518512 

> <ConfTolerance>
0.448095 

> <RosettaParamsInstructions>
M  ROOT 3
M  POLY_N_BB 3
M  POLY_CA_BB 4
M  POLY_C_BB 2
M  POLY_O_BB 5
M  POLY_IGNORE 9 10 11 12 13 14 15 16 17 18 
M  POLY_UPPER 6
M  POLY_LOWER 8
M  POLY_CHG 0
M  POLY_PROPERTIES ALPHA_AA L_AA PROTEIN AROMATIC POLYMER 
M  END

$$$$



 32 32  0  0  0  0  0  0  0  0999 V2000
   -0.2412    1.3116    0.2455 H   0  0  0  1  0  0  0  0  0  0  0  0
   -2.1072    1.4126   -0.7085 C   0  0  0  1  0  0  0  0  0  0  0  0
   -0.2464    3.0882   -0.7865 N   0  0  0  1  0  0  0  0  0  0  0  0
   -0.9435    2.0800   -0.0018 C   0  0  0  1  0  0  0  0  0  0  0  0
   -2.4973    0.2933   -0.3790 O   0  0  0  1  0  0  0  0  0  0  0  0
   -2.6696    2.1197   -1.7014 N   0  0  0  1  0  0  0  0  0  0  0  0
   -0.2332    4.0133   -0.4633 H   0  0  0  1  0  0  0  0  0  0  0  0
    0.3822    2.7935   -1.9433 C   0  0  0  1  0  0  0  0  0  0  0  0
   -3.7177    1.5714   -2.5492 C   0  0  0  1  0  0  0  0  0  0  0  0
    1.1502    3.9003   -2.6393 C   0  0  0  1  0  0  0  0  0  0  0  0
    0.3353    1.6609   -2.4214 O   0  0  0  1  0  0  0  0  0  0  0  0
   -2.3637    3.0370   -1.8609 H   0  0  0  1  0  0  0  0  0  0  0  0
   -4.3837    0.9798   -1.9565 H   0  0  0  1  0  0  0  0  0  0  0  0
   -3.2780    0.9597   -3.3091 H   0  0  0  1  0  0  0  0  0  0  0  0
   -4.2621    2.3716   -3.0055 H   0  0  0  1  0  0  0  0  0  0  0  0
    0.6828    4.8412   -2.4368 H   0  0  0  1  0  0  0  0  0  0  0  0
    1.1526    3.7233   -3.6945 H   0  0  0  1  0  0  0  0  0  0  0  0
    2.1571    3.9173   -2.2777 H   0  0  0  1  0  0  0  0  0  0  0  0
   -1.5924    7.5248    0.7300 F   0  0  0  1  0  0  0  0  0  0  0  0
   -2.2671    6.3635    0.8306 C   0  0  0  1  0  0  0  0  0  0  0  0
   -1.5379    5.1994    1.0164 C   0  0  0  1  0  0  0  0  0  0  0  0
   -2.1893    3.9848    1.1194 C   0  0  0  1  0  0  0  0  0  0  0  0
   -3.5723    3.9314    1.0423 C   0  0  0  1  0  0  0  0  0  0  0  0
   -4.2996    5.0921    0.8570 C   0  0  0  1  0  0  0  0  0  0  0  0
   -3.6461    6.3102    0.7537 C   0  0  0  1  0  0  0  0  0  0  0  0
   -1.3949    2.7152    1.3161 C   0  0  0  1  0  0  0  0  0  0  0  0
   -0.5006    5.2399    1.0783 H   0  0  0  1  0  0  0  0  0  0  0  0
   -4.0627    3.0180    1.1239 H   0  0  0  1  0  0  0  0  0  0  0  0
   -5.3369    5.0515    0.7952 H   0  0  0  1  0  0  0  0  0  0  0  0
   -4.1935    7.1841    0.6183 H   0  0  0  1  0  0  0  0  0  0  0  0
   -0.5271    2.9434    1.8990 H   0  0  0  1  0  0  0  0  0  0  0  0
   -2.0039    2.0106    1.8428 H   0  0  0  1  0  0  0  0  0  0  0  0
  1  4  1  0  0  0  0
  2  4  1  0  0  0  0
  2  5  2  0  0  0  0
  2  6  1  0  0  0  0
  3  4  1  0  0  0  0
  3  7  1  0  0  0  0
  3  8  1  0  0  0  0
  4 26  1  0  0  0  0
  6  9  1  0  0  0  0
  6 12  1  0  0  0  0
  8 10  1  0  0  0  0
  8 11  2  0  0  0  0
  9 13  1  0  0  0  0
  9 14  1  0  0  0  0
  9 15  1  0  0  0  0
 10 16  1  0  0  0  0
 10 17  1  0  0  0  0
 10 18  1  0  0  0  0
 19 20  1  0  0  0  0
 20 21  4  0  0  0  0
 20 25  4  0  0  0  0
 21 22  4  0  0  0  0
 21 27  1  0  0  0  0
 22 23  4  0  0  0  0
 22 26  1  0  0  0  0
 23 24  4  0  0  0  0
 23 28  1  0  0  0  0
 24 25  4  0  0  0  0
 24 29  1  0  0  0  0
 25 30  1  0  0  0  0
 26 31  1  0  0  0  0
 26 32  1  0  0  0  0
M  END
> <BCLConfClusterSize>
1

> <ConfClashScore>
0 

> <ConfOneFourInteractionScore>
-0.950605 

> <ConfScore>
-0.0580929 

> <ConfScorePBest>
0.00515664 

> <ConfTolerance>
0.36103 

> <RosettaParamsInstructions>
M  ROOT 3
M  POLY_N_BB 3
M  POLY_CA_BB 4
M  POLY_C_BB 2
M  POLY_O_BB 5
M  POLY_IGNORE 9 10 11 12 13 14 15 16 17 18 
M  POLY_UPPER 6
M  POLY_LOWER 8
M  POLY_CHG 0
M  POLY_PROPERTIES ALPHA_AA L_AA PROTEIN AROMATIC POLYMER 
M  END

$$$$



 32 32  0  0  0  0  0  0  0  0999 V2000
   -1.9991    1.6584   -0.4149 H   0  0  0  1  0  0  0  0  0  0  0  0
   -0.4549    2.9869   -0.9581 C   0  0  0  1  0  0  0  0  0  0  0  0
   -0.2330    0.8438    0.2783 N   0  0  0  1  0  0  0  0  0  0  0  0
   -1.0771    1.9982    0.0086 C   0  0  0  1  0  0  0  0  0  0  0  0
    0.7071    3.3676   -0.8223 O   0  0  0  1  0  0  0  0  0  0  0  0
   -1.2504    3.4082   -1.9540 N   0  0  0  1  0  0  0  0  0  0  0  0
    0.6893    0.9730    0.5836 H   0  0  0  1  0  0  0  0  0  0  0  0
   -0.7133   -0.3934    0.1104 C   0  0  0  1  0  0  0  0  0  0  0  0
   -0.8396    4.4414   -2.8929 C   0  0  0  1  0  0  0  0  0  0  0  0
    0.2151   -1.5182    0.5091 C   0  0  0  1  0  0  0  0  0  0  0  0
   -1.8361   -0.6209   -0.3383 O   0  0  0  1  0  0  0  0  0  0  0  0
   -2.1386    3.0059   -2.0522 H   0  0  0  1  0  0  0  0  0  0  0  0
    0.2272    4.5242   -2.8888 H   0  0  0  1  0  0  0  0  0  0  0  0
   -1.2708    5.3771   -2.6042 H   0  0  0  1  0  0  0  0  0  0  0  0
   -1.1732    4.1826   -3.8761 H   0  0  0  1  0  0  0  0  0  0  0  0
    0.9383   -1.1535    1.2082 H   0  0  0  1  0  0  0  0  0  0  0  0
    0.7159   -1.8918   -0.3596 H   0  0  0  1  0  0  0  0  0  0  0  0
   -0.3519   -2.3052    0.9607 H   0  0  0  1  0  0  0  0  0  0  0  0
   -1.6228    7.5417    0.7261 F   0  0  0  1  0  0  0  0  0  0  0  0
   -2.2608    6.3603    0.8314 C   0  0  0  1  0  0  0  0  0  0  0  0
   -1.5345    5.1943    1.0172 C   0  0  0  1  0  0  0  0  0  0  0  0
   -2.1888    3.9813    1.1199 C   0  0  0  1  0  0  0  0  0  0  0  0
   -3.5719    3.9313    1.0424 C   0  0  0  1  0  0  0  0  0  0  0  0
   -4.2963    5.0937    0.8570 C   0  0  0  1  0  0  0  0  0  0  0  0
   -3.6399    6.3103    0.7541 C   0  0  0  1  0  0  0  0  0  0  0  0
   -1.3975    2.7098    1.3166 C   0  0  0  1  0  0  0  0  0  0  0  0
   -0.4971    5.2324    1.0794 H   0  0  0  1  0  0  0  0  0  0  0  0
   -4.0646    3.0190    1.1236 H   0  0  0  1  0  0  0  0  0  0  0  0
   -5.3338    5.0556    0.7949 H   0  0  0  1  0  0  0  0  0  0  0  0
   -4.1852    7.1855    0.6187 H   0  0  0  1  0  0  0  0  0  0  0  0
   -0.4778    2.9534    1.8060 H   0  0  0  1  0  0  0  0  0  0  0  0
   -1.9663    2.0468    1.9345 H   0  0  0  1  0  0  0  0  0  0  0  0
  1  4  1  0  0  0  0
  2  4  1  0  0  0  0
  2  5  2  0  0  0  0
  2  6  1  0  0  0  0
  3  4  1  0  0  0  0
  3  7  1  0  0  0  0
  3  8  1  0  0  0  0
  4 26  1  0  0  0  0
  6  9  1  0  0  0  0
  6 12  1  0  0  0  0
  8 10  1  0  0  0  0
  8 11  2  0  0  0  0
  9 13  1  0  0  0  0
  9 14  1  0  0  0  0
  9 15  1  0  0  0  0
 10 16  1  0  0  0  0
 10 17  1  0  0  0  0
 10 18  1  0  0  0  0
 19 20  1  0  0  0  0
 20 21  4  0  0  0  0
 20 25  4  0  0  0  0
 21 22  4  0  0  0  0
 21 27  1  0  0  0  0
 22 23  4  0  0  0  0
 22 26  1  0  0  0  0
 23 24  4  0  0  0  0
 23 28  1  0  0  0  0
 24 25  4  0  0  0  0
 24 29  1  0  0  0  0
 25 30  1  0  0  0  0
 26 31  1  0  0  0  0
 26 32  1  0  0  0  0
M  END
> <BCLConfClusterSize>
1

> <ConfClashScore>
0 

> <ConfOneFourInteractionScore>
-0.990503 

> <ConfScore>
-0.0518026 

> <ConfScorePBest>
0.00512816 

> <ConfTolerance>
0.293543 

> <RosettaParamsInstructions>
M  ROOT 3
M  POLY_N_BB 3
M  POLY_CA_BB 4
M  POLY_C_BB 2
M  POLY_O_BB 5
M  POLY_IGNORE 9 10 11 12 13 14 15 16 17 18 
M  POLY_UPPER 6
M  POLY_LOWER 8
M  POLY_CHG 0
M  POLY_PROPERTIES ALPHA_AA L_AA PROTEIN AROMATIC POLYMER 
M  END

$$$$



 32 32  0  0  0  0  0  0  0  0999 V2000
   -0.0526    2.8861   -0.2409 H   0  0  0  1  0  0  0  0  0  0  0  0
   -0.0367    0.8129    0.2036 C   0  0  0  1  0  0  0  0  0  0  0  0
   -1.7156    2.0589   -1.0459 N   0  0  0  1  0  0  0  0  0  0  0  0
   -0.7938    2.1663    0.0373 C   0  0  0  1  0  0  0  0  0  0  0  0
    0.9186    0.7059    0.9715 O   0  0  0  1  0  0  0  0  0  0  0  0
   -0.4955   -0.2071   -0.5389 N   0  0  0  1  0  0  0  0  0  0  0  0
   -2.4865    1.4708   -0.9034 H   0  0  0  1  0  0  0  0  0  0  0  0
   -1.6474    2.6696   -2.2341 C   0  0  0  1  0  0  0  0  0  0  0  0
    0.1551   -1.5087   -0.5583 C   0  0  0  1  0  0  0  0  0  0  0  0
   -2.9101    2.6316   -3.1043 C   0  0  0  1  0  0  0  0  0  0  0  0
   -0.6648    3.3079   -2.6076 O   0  0  0  1  0  0  0  0  0  0  0  0
   -1.2964   -0.0704   -1.0868 H   0  0  0  1  0  0  0  0  0  0  0  0
    1.1531   -1.4036   -0.9296 H   0  0  0  1  0  0  0  0  0  0  0  0
   -0.3936   -2.1720   -1.1938 H   0  0  0  1  0  0  0  0  0  0  0  0
    0.1842   -1.9075    0.4341 H   0  0  0  1  0  0  0  0  0  0  0  0
   -3.7110    3.1239   -2.5932 H   0  0  0  1  0  0  0  0  0  0  0  0
   -3.1810    1.6143   -3.2952 H   0  0  0  1  0  0  0  0  0  0  0  0
   -2.7191    3.1304   -4.0315 H   0  0  0  1  0  0  0  0  0  0  0  0
   -1.6268    7.5487    0.7250 F   0  0  0  1  0  0  0  0  0  0  0  0
   -2.2607    6.3650    0.8308 C   0  0  0  1  0  0  0  0  0  0  0  0
   -1.5303    5.2017    1.0166 C   0  0  0  1  0  0  0  0  0  0  0  0
   -2.1803    3.9864    1.1198 C   0  0  0  1  0  0  0  0  0  0  0  0
   -3.5633    3.9316    1.0429 C   0  0  0  1  0  0  0  0  0  0  0  0
   -4.2918    5.0914    0.8576 C   0  0  0  1  0  0  0  0  0  0  0  0
   -3.6396    6.3102    0.7541 C   0  0  0  1  0  0  0  0  0  0  0  0
   -1.4379    2.6859    1.3169 C   0  0  0  1  0  0  0  0  0  0  0  0
   -0.4929    5.2433    1.0783 H   0  0  0  1  0  0  0  0  0  0  0  0
   -4.0527    3.0176    1.1246 H   0  0  0  1  0  0  0  0  0  0  0  0
   -5.3291    5.0497    0.7959 H   0  0  0  1  0  0  0  0  0  0  0  0
   -4.1880    7.1835    0.6187 H   0  0  0  1  0  0  0  0  0  0  0  0
   -0.6704    2.8391    2.0466 H   0  0  0  1  0  0  0  0  0  0  0  0
   -2.1282    1.9503    1.6737 H   0  0  0  1  0  0  0  0  0  0  0  0
  1  4  1  0  0  0  0
  2  4  1  0  0  0  0
  2  5  2  0  0  0  0
  2  6  1  0  0  0  0
  3  4  1  0  0  0  0
  3  7  1  0  0  0  0
  3  8  1  0  0  0  0
  4 26  1  0  0  0  0
  6  9  1  0  0  0  0
  6 12  1  0  0  0  0
  8 10  1  0  0  0  0
  8 11  2  0  0  0  0
  9 13  1  0  0  0  0
  9 14  1  0  0  0  0
  9 15  1  0  0  0  0
 10 16  1  0  0  0  0
 10 17  1  0  0  0  0
 10 18  1  0  0  0  0
 19 20  1  0  0  0  0
 20 21  4  0  0  0  0
 20 25  4  0  0  0  0
 21 22  4  0  0  0  0
 21 27  1  0  0  0  0
 22 23  4  0  0  0  0
 22 26  1  0  0  0  0
 23 24  4  0  0  0  0
 23 28  1  0  0  0  0
 24 25  4  0  0  0  0
 24 29  1  0  0  0  0
 25 30  1  0  0  0  0
 26 31  1  0  0  0  0
 26 32  1  0  0  0  0
M  END
> <BCLConfClusterSize>
1

> <ConfClashScore>
0 

> <ConfOneFourInteractionScore>
-0.94165 

> <ConfScore>
-0.0504278 

> <ConfScorePBest>
0.00509968 

> <ConfTolerance>
0.370199 

> <RosettaParamsInstructions>
M  ROOT 3
M  POLY_N_BB 3
M  POLY_CA_BB 4
M  POLY_C_BB 2
M  POLY_O_BB 5
M  POLY_IGNORE 9 10 11 12 13 14 15 16 17 18 
M  POLY_UPPER 6
M  POLY_LOWER 8
M  POLY_CHG 0
M  POLY_PROPERTIES ALPHA_AA L_AA PROTEIN AROMATIC POLYMER 
M  END

$$$$



 32 32  0  0  0  0  0  0  0  0999 V2000
   -0.9891    2.5778   -0.7665 H   0  0  0  1  0  0  0  0  0  0  0  0
    0.6695    3.5111    0.1682 C   0  0  0  1  0  0  0  0  0  0  0  0
    0.1783    1.1553    0.2108 N   0  0  0  1  0  0  0  0  0  0  0  0
   -0.4430    2.4805    0.1485 C   0  0  0  1  0  0  0  0  0  0  0  0
    0.5926    4.5357   -0.5085 O   0  0  0  1  0  0  0  0  0  0  0  0
    1.7329    3.2727    0.9411 N   0  0  0  1  0  0  0  0  0  0  0  0
    0.1093    0.6392    1.0410 H   0  0  0  1  0  0  0  0  0  0  0  0
    0.8366    0.6253   -0.8261 C   0  0  0  1  0  0  0  0  0  0  0  0
    2.9484    4.0686    0.8580 C   0  0  0  1  0  0  0  0  0  0  0  0
    1.3154   -0.8003   -0.5832 C   0  0  0  1  0  0  0  0  0  0  0  0
    1.0524    1.2058   -1.8892 O   0  0  0  1  0  0  0  0  0  0  0  0
    1.6930    2.5363    1.5865 H   0  0  0  1  0  0  0  0  0  0  0  0
    2.9094    4.8568    1.5806 H   0  0  0  1  0  0  0  0  0  0  0  0
    3.0335    4.4880   -0.1227 H   0  0  0  1  0  0  0  0  0  0  0  0
    3.7962    3.4461    1.0550 H   0  0  0  1  0  0  0  0  0  0  0  0
    0.4797   -1.4202   -0.3339 H   0  0  0  1  0  0  0  0  0  0  0  0
    2.0179   -0.8077    0.2238 H   0  0  0  1  0  0  0  0  0  0  0  0
    1.7849   -1.1743   -1.4689 H   0  0  0  1  0  0  0  0  0  0  0  0
   -1.6228    7.5417    0.7261 F   0  0  0  1  0  0  0  0  0  0  0  0
   -2.2608    6.3603    0.8314 C   0  0  0  1  0  0  0  0  0  0  0  0
   -1.5345    5.1943    1.0172 C   0  0  0  1  0  0  0  0  0  0  0  0
   -2.1888    3.9813    1.1199 C   0  0  0  1  0  0  0  0  0  0  0  0
   -3.5719    3.9313    1.0424 C   0  0  0  1  0  0  0  0  0  0  0  0
   -4.2963    5.0937    0.8570 C   0  0  0  1  0  0  0  0  0  0  0  0
   -3.6399    6.3103    0.7541 C   0  0  0  1  0  0  0  0  0  0  0  0
   -1.3975    2.7098    1.3166 C   0  0  0  1  0  0  0  0  0  0  0  0
   -0.4971    5.2324    1.0794 H   0  0  0  1  0  0  0  0  0  0  0  0
   -4.0646    3.0190    1.1236 H   0  0  0  1  0  0  0  0  0  0  0  0
   -5.3338    5.0556    0.7949 H   0  0  0  1  0  0  0  0  0  0  0  0
   -4.1852    7.1855    0.6187 H   0  0  0  1  0  0  0  0  0  0  0  0
   -0.8323    2.7849    2.2220 H   0  0  0  1  0  0  0  0  0  0  0  0
   -2.0733    1.8830    1.3849 H   0  0  0  1  0  0  0  0  0  0  0  0
  1  4  1  0  0  0  0
  2  4  1  0  0  0  0
  2  5  2  0  0  0  0
  2  6  1  0  0  0  0
  3  4  1  0  0  0  0
  3  7  1  0  0  0  0
  3  8  1  0  0  0  0
  4 26  1  0  0  0  0
  6  9  1  0  0  0  0
  6 12  1  0  0  0  0
  8 10  1  0  0  0  0
  8 11  2  0  0  0  0
  9 13  1  0  0  0  0
  9 14  1  0  0  0  0
  9 15  1  0  0  0  0
 10 16  1  0  0  0  0
 10 17  1  0  0  0  0
 10 18  1  0  0  0  0
 19 20  1  0  0  0  0
 20 21  4  0  0  0  0
 20 25  4  0  0  0  0
 21 22  4  0  0  0  0
 21 27  1  0  0  0  0
 22 23  4  0  0  0  0
 22 26  1  0  0  0  0
 23 24  4  0  0  0  0
 23 28  1  0  0  0  0
 24 25  4  0  0  0  0
 24 29  1  0  0  0  0
 25 30  1  0  0  0  0
 26 31  1  0  0  0  0
 26 32  1  0  0  0  0
M  END
> <BCLConfClusterSize>
1

> <ConfClashScore>
0 

> <ConfOneFourInteractionScore>
-0.960318 

> <ConfScore>
-0.049284 

> <ConfScorePBest>
0.0050712 

> <ConfTolerance>
0.639719 

> <RosettaParamsInstructions>
M  ROOT 3
M  POLY_N_BB 3
M  POLY_CA_BB 4
M  POLY_C_BB 2
M  POLY_O_BB 5
M  POLY_IGNORE 9 10 11 12 13 14 15 16 17 18 
M  POLY_UPPER 6
M  POLY_LOWER 8
M  POLY_CHG 0
M  POLY_PROPERTIES ALPHA_AA L_AA PROTEIN AROMATIC POLYMER 
M  END

$$$$



 32 32  0  0  0  0  0  0  0  0999 V2000
   -1.9424    1.9452   -0.5628 H   0  0  0  1  0  0  0  0  0  0  0  0
   -0.6902    0.5067    0.3125 C   0  0  0  1  0  0  0  0  0  0  0  0
   -3.0581    0.9311    0.8300 N   0  0  0  1  0  0  0  0  0  0  0  0
   -1.7999    1.5436    0.4187 C   0  0  0  1  0  0  0  0  0  0  0  0
    0.1439    0.5545   -0.5906 O   0  0  0  1  0  0  0  0  0  0  0  0
   -0.6891   -0.4453    1.2589 N   0  0  0  1  0  0  0  0  0  0  0  0
   -3.5796    1.3550    1.5433 H   0  0  0  1  0  0  0  0  0  0  0  0
   -3.5244   -0.1878    0.2682 C   0  0  0  1  0  0  0  0  0  0  0  0
    0.4332   -1.3652    1.3687 C   0  0  0  1  0  0  0  0  0  0  0  0
   -4.7961   -0.7487    0.8744 C   0  0  0  1  0  0  0  0  0  0  0  0
   -2.9721   -0.7407   -0.6792 O   0  0  0  1  0  0  0  0  0  0  0  0
   -1.4457   -0.5210    1.8772 H   0  0  0  1  0  0  0  0  0  0  0  0
    0.1186   -2.2537    1.8751 H   0  0  0  1  0  0  0  0  0  0  0  0
    1.2224   -0.9002    1.9218 H   0  0  0  1  0  0  0  0  0  0  0  0
    0.7839   -1.6180    0.3900 H   0  0  0  1  0  0  0  0  0  0  0  0
   -4.8321   -1.8060    0.7137 H   0  0  0  1  0  0  0  0  0  0  0  0
   -5.6444   -0.2888    0.4120 H   0  0  0  1  0  0  0  0  0  0  0  0
   -4.8090   -0.5473    1.9251 H   0  0  0  1  0  0  0  0  0  0  0  0
   -1.6228    7.5417    0.7261 F   0  0  0  1  0  0  0  0  0  0  0  0
   -2.2608    6.3603    0.8314 C   0  0  0  1  0  0  0  0  0  0  0  0
   -1.5345    5.1943    1.0172 C   0  0  0  1  0  0  0  0  0  0  0  0
   -2.1888    3.9813    1.1199 C   0  0  0  1  0  0  0  0  0  0  0  0
   -3.5719    3.9313    1.0424 C   0  0  0  1  0  0  0  0  0  0  0  0
   -4.2963    5.0937    0.8570 C   0  0  0  1  0  0  0  0  0  0  0  0
   -3.6399    6.3103    0.7541 C   0  0  0  1  0  0  0  0  0  0  0  0
   -1.3975    2.7098    1.3166 C   0  0  0  1  0  0  0  0  0  0  0  0
   -0.4971    5.2324    1.0794 H   0  0  0  1  0  0  0  0  0  0  0  0
   -4.0646    3.0190    1.1236 H   0  0  0  1  0  0  0  0  0  0  0  0
   -5.3338    5.0556    0.7949 H   0  0  0  1  0  0  0  0  0  0  0  0
   -4.1852    7.1855    0.6187 H   0  0  0  1  0  0  0  0  0  0  0  0
   -0.3672    2.9300    1.1298 H   0  0  0  1  0  0  0  0  0  0  0  0
   -1.5179    2.4001    2.3337 H   0  0  0  1  0  0  0  0  0  0  0  0
  1  4  1  0  0  0  0
  2  4  1  0  0  0  0
  2  5  2  0  0  0  0
  2  6  1  0  0  0  0
  3  4  1  0  0  0  0
  3  7  1  0  0  0  0
  3  8  1  0  0  0  0
  4 26  1  0  0  0  0
  6  9  1  0  0  0  0
  6 12  1  0  0  0  0
  8 10  1  0  0  0  0
  8 11  2  0  0  0  0
  9 13  1  0  0  0  0
  9 14  1  0  0  0  0
  9 15  1  0  0  0  0
 10 16  1  0  0  0  0
 10 17  1  0  0  0  0
 10 18  1  0  0  0  0
 19 20  1  0  0  0  0
 20 21  4  0  0  0  0
 20 25  4  0  0  0  0
 21 22  4  0  0  0  0
 21 27  1  0  0  0  0
 22 23  4  0  0  0  0
 22 26  1  0  0  0  0
 23 24  4  0  0  0  0
 23 28  1  0  0  0  0
 24 25  4  0  0  0  0
 24 29  1  0  0  0  0
 25 30  1  0  0  0  0
 26 31  1  0  0  0  0
 26 32  1  0  0  0  0
M  END
> <BCLConfClusterSize>
1

> <ConfClashScore>
0 

> <ConfOneFourInteractionScore>
-0.944706 

> <ConfScore>
-0.0453768 

> <ConfScorePBest>
0.00504272 

> <ConfTolerance>
0.540961 

> <RosettaParamsInstructions>
M  ROOT 3
M  POLY_N_BB 3
M  POLY_CA_BB 4
M  POLY_C_BB 2
M  POLY_O_BB 5
M  POLY_IGNORE 9 10 11 12 13 14 15 16 17 18 
M  POLY_UPPER 6
M  POLY_LOWER 8
M  POLY_CHG 0
M  POLY_PROPERTIES ALPHA_AA L_AA PROTEIN AROMATIC POLYMER 
M  END

$$$$



 32 32  0  0  0  0  0  0  0  0999 V2000
   -1.8105    1.8372   -0.5619 H   0  0  0  1  0  0  0  0  0  0  0  0
   -0.0976    3.0177   -0.8499 C   0  0  0  1  0  0  0  0  0  0  0  0
   -0.1790    0.8643    0.2347 N   0  0  0  1  0  0  0  0  0  0  0  0
   -0.9334    2.0861   -0.0018 C   0  0  0  1  0  0  0  0  0  0  0  0
    1.0755    3.2515   -0.5619 O   0  0  0  1  0  0  0  0  0  0  0  0
   -0.6762    3.5834   -1.9295 N   0  0  0  1  0  0  0  0  0  0  0  0
   -0.0864    0.5154    1.1458 H   0  0  0  1  0  0  0  0  0  0  0  0
    0.3933    0.2109   -0.7977 C   0  0  0  1  0  0  0  0  0  0  0  0
    0.1286    4.3379   -2.8787 C   0  0  0  1  0  0  0  0  0  0  0  0
    1.1441   -1.0725   -0.5008 C   0  0  0  1  0  0  0  0  0  0  0  0
    0.3098    0.6417   -1.9471 O   0  0  0  1  0  0  0  0  0  0  0  0
   -1.6404    3.4860   -2.0748 H   0  0  0  1  0  0  0  0  0  0  0  0
    1.0224    4.6777   -2.3984 H   0  0  0  1  0  0  0  0  0  0  0  0
   -0.4301    5.1805   -3.2291 H   0  0  0  1  0  0  0  0  0  0  0  0
    0.3853    3.7103   -3.7064 H   0  0  0  1  0  0  0  0  0  0  0  0
    0.5525   -1.6924    0.1400 H   0  0  0  1  0  0  0  0  0  0  0  0
    2.0696   -0.8402   -0.0167 H   0  0  0  1  0  0  0  0  0  0  0  0
    1.3401   -1.5907   -1.4162 H   0  0  0  1  0  0  0  0  0  0  0  0
   -1.5924    7.5248    0.7300 F   0  0  0  1  0  0  0  0  0  0  0  0
   -2.2671    6.3635    0.8306 C   0  0  0  1  0  0  0  0  0  0  0  0
   -1.5379    5.1994    1.0164 C   0  0  0  1  0  0  0  0  0  0  0  0
   -2.1893    3.9848    1.1194 C   0  0  0  1  0  0  0  0  0  0  0  0
   -3.5723    3.9314    1.0423 C   0  0  0  1  0  0  0  0  0  0  0  0
   -4.2996    5.0921    0.8570 C   0  0  0  1  0  0  0  0  0  0  0  0
   -3.6461    6.3102    0.7537 C   0  0  0  1  0  0  0  0  0  0  0  0
   -1.3949    2.7152    1.3161 C   0  0  0  1  0  0  0  0  0  0  0  0
   -0.5006    5.2399    1.0783 H   0  0  0  1  0  0  0  0  0  0  0  0
   -4.0627    3.0180    1.1239 H   0  0  0  1  0  0  0  0  0  0  0  0
   -5.3369    5.0515    0.7952 H   0  0  0  1  0  0  0  0  0  0  0  0
   -4.1935    7.1841    0.6183 H   0  0  0  1  0  0  0  0  0  0  0  0
   -0.5315    2.9417    1.9061 H   0  0  0  1  0  0  0  0  0  0  0  0
   -2.0068    2.0076    1.8354 H   0  0  0  1  0  0  0  0  0  0  0  0
  1  4  1  0  0  0  0
  2  4  1  0  0  0  0
  2  5  2  0  0  0  0
  2  6  1  0  0  0  0
  3  4  1  0  0  0  0
  3  7  1  0  0  0  0
  3  8  1  0  0  0  0
  4 26  1  0  0  0  0
  6  9  1  0  0  0  0
  6 12  1  0  0  0  0
  8 10  1  0  0  0  0
  8 11  2  0  0  0  0
  9 13  1  0  0  0  0
  9 14  1  0  0  0  0
  9 15  1  0  0  0  0
 10 16  1  0  0  0  0
 10 17  1  0  0  0  0
 10 18  1  0  0  0  0
 19 20  1  0  0  0  0
 20 21  4  0  0  0  0
 20 25  4  0  0  0  0
 21 22  4  0  0  0  0
 21 27  1  0  0  0  0
 22 23  4  0  0  0  0
 22 26  1  0  0  0  0
 23 24  4  0  0  0  0
 23 28  1  0  0  0  0
 24 25  4  0  0  0  0
 24 29  1  0  0  0  0
 25 30  1  0  0  0  0
 26 31  1  0  0  0  0
 26 32  1  0  0  0  0
M  END
> <BCLConfClusterSize>
1

> <ConfClashScore>
0 

> <ConfOneFourInteractionScore>
-0.985807 

> <ConfScore>
-0.0427066 

> <ConfScorePBest>
0.00501424 

> <ConfTolerance>
0.244383 

> <RosettaParamsInstructions>
M  ROOT 3
M  POLY_N_BB 3
M  POLY_CA_BB 4
M  POLY_C_BB 2
M  POLY_O_BB 5
M  POLY_IGNORE 9 10 11 12 13 14 15 16 17 18 
M  POLY_UPPER 6
M  POLY_LOWER 8
M  POLY_CHG 0
M  POLY_PROPERTIES ALPHA_AA L_AA PROTEIN AROMATIC POLYMER 
M  END

$$$$



 32 32  0  0  0  0  0  0  0  0999 V2000
   -0.8008    1.3373    2.8090 H   0  0  0  1  0  0  0  0  0  0  0  0
   -0.6803    3.2857    3.6266 C   0  0  0  1  0  0  0  0  0  0  0  0
   -2.7368    1.9433    3.1968 N   0  0  0  1  0  0  0  0  0  0  0  0
   -1.3786    2.2368    2.7642 C   0  0  0  1  0  0  0  0  0  0  0  0
    0.5301    3.2276    3.8394 O   0  0  0  1  0  0  0  0  0  0  0  0
   -1.4931    4.1986    4.1817 N   0  0  0  1  0  0  0  0  0  0  0  0
   -3.4624    2.0748    2.5513 H   0  0  0  1  0  0  0  0  0  0  0  0
   -3.0568    1.5070    4.4154 C   0  0  0  1  0  0  0  0  0  0  0  0
   -0.9655    5.1627    5.1357 C   0  0  0  1  0  0  0  0  0  0  0  0
   -4.5364    1.2966    4.6722 C   0  0  0  1  0  0  0  0  0  0  0  0
   -2.2192    1.2838    5.2884 O   0  0  0  1  0  0  0  0  0  0  0  0
   -2.4436    4.2159    3.9439 H   0  0  0  1  0  0  0  0  0  0  0  0
    0.1013    5.1933    5.0597 H   0  0  0  1  0  0  0  0  0  0  0  0
   -1.2440    4.8721    6.1271 H   0  0  0  1  0  0  0  0  0  0  0  0
   -1.3660    6.1316    4.9218 H   0  0  0  1  0  0  0  0  0  0  0  0
   -4.7180    1.2871    5.7266 H   0  0  0  1  0  0  0  0  0  0  0  0
   -4.8422    0.3625    4.2494 H   0  0  0  1  0  0  0  0  0  0  0  0
   -5.0929    2.0918    4.2218 H   0  0  0  1  0  0  0  0  0  0  0  0
   -1.6228    7.5417    0.7261 F   0  0  0  1  0  0  0  0  0  0  0  0
   -2.2608    6.3603    0.8314 C   0  0  0  1  0  0  0  0  0  0  0  0
   -1.5345    5.1943    1.0172 C   0  0  0  1  0  0  0  0  0  0  0  0
   -2.1888    3.9813    1.1199 C   0  0  0  1  0  0  0  0  0  0  0  0
   -3.5719    3.9313    1.0424 C   0  0  0  1  0  0  0  0  0  0  0  0
   -4.2963    5.0937    0.8570 C   0  0  0  1  0  0  0  0  0  0  0  0
   -3.6399    6.3103    0.7541 C   0  0  0  1  0  0  0  0  0  0  0  0
   -1.3975    2.7098    1.3166 C   0  0  0  1  0  0  0  0  0  0  0  0
   -0.4971    5.2324    1.0794 H   0  0  0  1  0  0  0  0  0  0  0  0
   -4.0646    3.0190    1.1236 H   0  0  0  1  0  0  0  0  0  0  0  0
   -5.3338    5.0556    0.7949 H   0  0  0  1  0  0  0  0  0  0  0  0
   -4.1852    7.1855    0.6187 H   0  0  0  1  0  0  0  0  0  0  0  0
   -1.8326    1.9411    0.7127 H   0  0  0  1  0  0  0  0  0  0  0  0
   -0.3898    2.8837    1.0019 H   0  0  0  1  0  0  0  0  0  0  0  0
  1  4  1  0  0  0  0
  2  4  1  0  0  0  0
  2  5  2  0  0  0  0
  2  6  1  0  0  0  0
  3  4  1  0  0  0  0
  3  7  1  0  0  0  0
  3  8  1  0  0  0  0
  4 26  1  0  0  0  0
  6  9  1  0  0  0  0
  6 12  1  0  0  0  0
  8 10  1  0  0  0  0
  8 11  2  0  0  0  0
  9 13  1  0  0  0  0
  9 14  1  0  0  0  0
  9 15  1  0  0  0  0
 10 16  1  0  0  0  0
 10 17  1  0  0  0  0
 10 18  1  0  0  0  0
 19 20  1  0  0  0  0
 20 21  4  0  0  0  0
 20 25  4  0  0  0  0
 21 22  4  0  0  0  0
 21 27  1  0  0  0  0
 22 23  4  0  0  0  0
 22 26  1  0  0  0  0
 23 24  4  0  0  0  0
 23 28  1  0  0  0  0
 24 25  4  0  0  0  0
 24 29  1  0  0  0  0
 25 30  1  0  0  0  0
 26 31  1  0  0  0  0
 26 32  1  0  0  0  0
M  END
> <BCLConfClusterSize>
1

> <ConfClashScore>
0 

> <ConfOneFourInteractionScore>
-0.950605 

> <ConfScore>
-0.0426372 

> <ConfScorePBest>
0.00498576 

> <ConfTolerance>
0.30212 

> <RosettaParamsInstructions>
M  ROOT 3
M  POLY_N_BB 3
M  POLY_CA_BB 4
M  POLY_C_BB 2
M  POLY_O_BB 5
M  POLY_IGNORE 9 10 11 12 13 14 15 16 17 18 
M  POLY_UPPER 6
M  POLY_LOWER 8
M  POLY_CHG 0
M  POLY_PROPERTIES ALPHA_AA L_AA PROTEIN AROMATIC POLYMER 
M  END

$$$$



 32 32  0  0  0  0  0  0  0  0999 V2000
   -0.3765    1.6002    2.8031 H   0  0  0  1  0  0  0  0  0  0  0  0
    0.1162    3.6338    3.0795 C   0  0  0  1  0  0  0  0  0  0  0  0
   -1.9775    2.5531    3.6969 N   0  0  0  1  0  0  0  0  0  0  0  0
   -0.8806    2.5420    2.7423 C   0  0  0  1  0  0  0  0  0  0  0  0
    1.2885    3.5633    2.7130 O   0  0  0  1  0  0  0  0  0  0  0  0
   -0.3658    4.6632    3.7937 N   0  0  0  1  0  0  0  0  0  0  0  0
   -2.8946    2.7042    3.3862 H   0  0  0  1  0  0  0  0  0  0  0  0
   -1.7356    2.3561    5.0075 C   0  0  0  1  0  0  0  0  0  0  0  0
    0.4981    5.6879    4.3608 C   0  0  0  1  0  0  0  0  0  0  0  0
   -2.9346    2.5170    5.9332 C   0  0  0  1  0  0  0  0  0  0  0  0
   -0.6242    2.0642    5.4472 O   0  0  0  1  0  0  0  0  0  0  0  0
   -1.3329    4.7268    3.9383 H   0  0  0  1  0  0  0  0  0  0  0  0
    1.4204    5.7174    3.8191 H   0  0  0  1  0  0  0  0  0  0  0  0
    0.6949    5.4600    5.3875 H   0  0  0  1  0  0  0  0  0  0  0  0
    0.0141    6.6398    4.2926 H   0  0  0  1  0  0  0  0  0  0  0  0
   -2.7349    3.2905    6.6451 H   0  0  0  1  0  0  0  0  0  0  0  0
   -3.1135    1.5963    6.4481 H   0  0  0  1  0  0  0  0  0  0  0  0
   -3.7976    2.7774    5.3567 H   0  0  0  1  0  0  0  0  0  0  0  0
   -1.6228    7.5417    0.7261 F   0  0  0  1  0  0  0  0  0  0  0  0
   -2.2608    6.3603    0.8314 C   0  0  0  1  0  0  0  0  0  0  0  0
   -1.5345    5.1943    1.0172 C   0  0  0  1  0  0  0  0  0  0  0  0
   -2.1888    3.9813    1.1199 C   0  0  0  1  0  0  0  0  0  0  0  0
   -3.5719    3.9313    1.0424 C   0  0  0  1  0  0  0  0  0  0  0  0
   -4.2963    5.0937    0.8570 C   0  0  0  1  0  0  0  0  0  0  0  0
   -3.6399    6.3103    0.7541 C   0  0  0  1  0  0  0  0  0  0  0  0
   -1.3975    2.7098    1.3166 C   0  0  0  1  0  0  0  0  0  0  0  0
   -0.4971    5.2324    1.0794 H   0  0  0  1  0  0  0  0  0  0  0  0
   -4.0646    3.0190    1.1236 H   0  0  0  1  0  0  0  0  0  0  0  0
   -5.3338    5.0556    0.7949 H   0  0  0  1  0  0  0  0  0  0  0  0
   -4.1852    7.1855    0.6187 H   0  0  0  1  0  0  0  0  0  0  0  0
   -2.0273    1.8771    1.0824 H   0  0  0  1  0  0  0  0  0  0  0  0
   -0.5605    2.7231    0.6502 H   0  0  0  1  0  0  0  0  0  0  0  0
  1  4  1  0  0  0  0
  2  4  1  0  0  0  0
  2  5  2  0  0  0  0
  2  6  1  0  0  0  0
  3  4  1  0  0  0  0
  3  7  1  0  0  0  0
  3  8  1  0  0  0  0
  4 26  1  0  0  0  0
  6  9  1  0  0  0  0
  6 12  1  0  0  0  0
  8 10  1  0  0  0  0
  8 11  2  0  0  0  0
  9 13  1  0  0  0  0
  9 14  1  0  0  0  0
  9 15  1  0  0  0  0
 10 16  1  0  0  0  0
 10 17  1  0  0  0  0
 10 18  1  0  0  0  0
 19 20  1  0  0  0  0
 20 21  4  0  0  0  0
 20 25  4  0  0  0  0
 21 22  4  0  0  0  0
 21 27  1  0  0  0  0
 22 23  4  0  0  0  0
 22 26  1  0  0  0  0
 23 24  4  0  0  0  0
 23 28  1  0  0  0  0
 24 25  4  0  0  0  0
 24 29  1  0  0  0  0
 25 30  1  0  0  0  0
 26 31  1  0  0  0  0
 26 32  1  0  0  0  0
M  END
> <BCLConfClusterSize>
1

> <ConfClashScore>
0 

> <ConfOneFourInteractionScore>
-0.931937 

> <ConfScore>
-0.0407377 

> <ConfScorePBest>
0.00495728 

> <ConfTolerance>
0.299443 

> <RosettaParamsInstructions>
M  ROOT 3
M  POLY_N_BB 3
M  POLY_CA_BB 4
M  POLY_C_BB 2
M  POLY_O_BB 5
M  POLY_IGNORE 9 10 11 12 13 14 15 16 17 18 
M  POLY_UPPER 6
M  POLY_LOWER 8
M  POLY_CHG 0
M  POLY_PROPERTIES ALPHA_AA L_AA PROTEIN AROMATIC POLYMER 
M  END

$$$$



 32 32  0  0  0  0  0  0  0  0999 V2000
   -0.1414    3.1805    2.9627 H   0  0  0  1  0  0  0  0  0  0  0  0
   -2.0521    2.6359    3.7286 C   0  0  0  1  0  0  0  0  0  0  0  0
   -0.3798    1.1182    2.8903 N   0  0  0  1  0  0  0  0  0  0  0  0
   -0.9045    2.4665    2.7331 C   0  0  0  1  0  0  0  0  0  0  0  0
   -3.0196    1.8928    3.7217 O   0  0  0  1  0  0  0  0  0  0  0  0
   -1.8804    3.6588    4.5809 N   0  0  0  1  0  0  0  0  0  0  0  0
   -0.4949    0.4775    2.1578 H   0  0  0  1  0  0  0  0  0  0  0  0
    0.2524    0.7242    3.9968 C   0  0  0  1  0  0  0  0  0  0  0  0
   -2.8561    3.9853    5.6100 C   0  0  0  1  0  0  0  0  0  0  0  0
    0.7409   -0.7111    4.0175 C   0  0  0  1  0  0  0  0  0  0  0  0
    0.5045    1.4942    4.9227 O   0  0  0  1  0  0  0  0  0  0  0  0
   -1.0698    4.2046    4.5074 H   0  0  0  1  0  0  0  0  0  0  0  0
   -3.8406    3.7706    5.2499 H   0  0  0  1  0  0  0  0  0  0  0  0
   -2.7842    5.0251    5.8523 H   0  0  0  1  0  0  0  0  0  0  0  0
   -2.6611    3.4004    6.4845 H   0  0  0  1  0  0  0  0  0  0  0  0
   -0.0988   -1.3739    4.0397 H   0  0  0  1  0  0  0  0  0  0  0  0
    1.3435   -0.8701    4.8873 H   0  0  0  1  0  0  0  0  0  0  0  0
    1.3227   -0.9023    3.1401 H   0  0  0  1  0  0  0  0  0  0  0  0
   -1.5924    7.5248    0.7300 F   0  0  0  1  0  0  0  0  0  0  0  0
   -2.2671    6.3635    0.8306 C   0  0  0  1  0  0  0  0  0  0  0  0
   -1.5379    5.1994    1.0164 C   0  0  0  1  0  0  0  0  0  0  0  0
   -2.1893    3.9848    1.1194 C   0  0  0  1  0  0  0  0  0  0  0  0
   -3.5723    3.9314    1.0423 C   0  0  0  1  0  0  0  0  0  0  0  0
   -4.2996    5.0921    0.8570 C   0  0  0  1  0  0  0  0  0  0  0  0
   -3.6461    6.3102    0.7537 C   0  0  0  1  0  0  0  0  0  0  0  0
   -1.3949    2.7152    1.3161 C   0  0  0  1  0  0  0  0  0  0  0  0
   -0.5006    5.2399    1.0783 H   0  0  0  1  0  0  0  0  0  0  0  0
   -4.0627    3.0180    1.1239 H   0  0  0  1  0  0  0  0  0  0  0  0
   -5.3369    5.0515    0.7952 H   0  0  0  1  0  0  0  0  0  0  0  0
   -4.1935    7.1841    0.6183 H   0  0  0  1  0  0  0  0  0  0  0  0
   -2.0147    1.8907    1.0317 H   0  0  0  1  0  0  0  0  0  0  0  0
   -0.5402    2.7579    0.6737 H   0  0  0  1  0  0  0  0  0  0  0  0
  1  4  1  0  0  0  0
  2  4  1  0  0  0  0
  2  5  2  0  0  0  0
  2  6  1  0  0  0  0
  3  4  1  0  0  0  0
  3  7  1  0  0  0  0
  3  8  1  0  0  0  0
  4 26  1  0  0  0  0
  6  9  1  0  0  0  0
  6 12  1  0  0  0  0
  8 10  1  0  0  0  0
  8 11  2  0  0  0  0
  9 13  1  0  0  0  0
  9 14  1  0  0  0  0
  9 15  1  0  0  0  0
 10 16  1  0  0  0  0
 10 17  1  0  0  0  0
 10 18  1  0  0  0  0
 19 20  1  0  0  0  0
 20 21  4  0  0  0  0
 20 25  4  0  0  0  0
 21 22  4  0  0  0  0
 21 27  1  0  0  0  0
 22 23  4  0  0  0  0
 22 26  1  0  0  0  0
 23 24  4  0  0  0  0
 23 28  1  0  0  0  0
 24 25  4  0  0  0  0
 24 29  1  0  0  0  0
 25 30  1  0  0  0  0
 26 31  1  0  0  0  0
 26 32  1  0  0  0  0
M  END
> <BCLConfClusterSize>
1

> <ConfClashScore>
0 

> <ConfOneFourInteractionScore>
-0.985807 

> <ConfScore>
-0.0393906 

> <ConfScorePBest>
0.0049288 

> <ConfTolerance>
0.278279 

> <RosettaParamsInstructions>
M  ROOT 3
M  POLY_N_BB 3
M  POLY_CA_BB 4
M  POLY_C_BB 2
M  POLY_O_BB 5
M  POLY_IGNORE 9 10 11 12 13 14 15 16 17 18 
M  POLY_UPPER 6
M  POLY_LOWER 8
M  POLY_CHG 0
M  POLY_PROPERTIES ALPHA_AA L_AA PROTEIN AROMATIC POLYMER 
M  END

$$$$



 32 32  0  0  0  0  0  0  0  0999 V2000
   -1.4704    2.0822   -0.7030 H   0  0  0  1  0  0  0  0  0  0  0  0
    0.2621    3.2788   -0.4731 C   0  0  0  1  0  0  0  0  0  0  0  0
   -0.0239    0.9642    0.2681 N   0  0  0  1  0  0  0  0  0  0  0  0
   -0.7166    2.2277    0.0423 C   0  0  0  1  0  0  0  0  0  0  0  0
    1.1540    3.7338    0.2196 O   0  0  0  1  0  0  0  0  0  0  0  0
    0.1404    3.7190   -1.7286 N   0  0  0  1  0  0  0  0  0  0  0  0
    0.6327    0.9527    0.9955 H   0  0  0  1  0  0  0  0  0  0  0  0
   -0.1844   -0.1907   -0.4107 C   0  0  0  1  0  0  0  0  0  0  0  0
    0.9257    4.8316   -2.2418 C   0  0  0  1  0  0  0  0  0  0  0  0
    0.7655   -1.3333   -0.1083 C   0  0  0  1  0  0  0  0  0  0  0  0
   -1.0729   -0.3155   -1.2493 O   0  0  0  1  0  0  0  0  0  0  0  0
   -0.4999    3.2773   -2.3247 H   0  0  0  1  0  0  0  0  0  0  0  0
    1.6075    5.1654   -1.4877 H   0  0  0  1  0  0  0  0  0  0  0  0
    0.2720    5.6345   -2.5120 H   0  0  0  1  0  0  0  0  0  0  0  0
    1.4749    4.5129   -3.1030 H   0  0  0  1  0  0  0  0  0  0  0  0
    1.7514   -1.0737   -0.4334 H   0  0  0  1  0  0  0  0  0  0  0  0
    0.4404   -2.2130   -0.6234 H   0  0  0  1  0  0  0  0  0  0  0  0
    0.7752   -1.5194    0.9454 H   0  0  0  1  0  0  0  0  0  0  0  0
   -1.6228    7.5417    0.7261 F   0  0  0  1  0  0  0  0  0  0  0  0
   -2.2608    6.3603    0.8314 C   0  0  0  1  0  0  0  0  0  0  0  0
   -1.5345    5.1943    1.0172 C   0  0  0  1  0  0  0  0  0  0  0  0
   -2.1888    3.9813    1.1199 C   0  0  0  1  0  0  0  0  0  0  0  0
   -3.5719    3.9313    1.0424 C   0  0  0  1  0  0  0  0  0  0  0  0
   -4.2963    5.0937    0.8570 C   0  0  0  1  0  0  0  0  0  0  0  0
   -3.6399    6.3103    0.7541 C   0  0  0  1  0  0  0  0  0  0  0  0
   -1.3975    2.7098    1.3166 C   0  0  0  1  0  0  0  0  0  0  0  0
   -0.4971    5.2324    1.0794 H   0  0  0  1  0  0  0  0  0  0  0  0
   -4.0646    3.0190    1.1236 H   0  0  0  1  0  0  0  0  0  0  0  0
   -5.3338    5.0556    0.7949 H   0  0  0  1  0  0  0  0  0  0  0  0
   -4.1852    7.1855    0.6187 H   0  0  0  1  0  0  0  0  0  0  0  0
   -0.6466    2.8873    2.0578 H   0  0  0  1  0  0  0  0  0  0  0  0
   -2.0625    1.9442    1.6579 H   0  0  0  1  0  0  0  0  0  0  0  0
  1  4  1  0  0  0  0
  2  4  1  0  0  0  0
  2  5  2  0  0  0  0
  2  6  1  0  0  0  0
  3  4  1  0  0  0  0
  3  7  1  0  0  0  0
  3  8  1  0  0  0  0
  4 26  1  0  0  0  0
  6  9  1  0  0  0  0
  6 12  1  0  0  0  0
  8 10  1  0  0  0  0
  8 11  2  0  0  0  0
  9 13  1  0  0  0  0
  9 14  1  0  0  0  0
  9 15  1  0  0  0  0
 10 16  1  0  0  0  0
 10 17  1  0  0  0  0
 10 18  1  0  0  0  0
 19 20  1  0  0  0  0
 20 21  4  0  0  0  0
 20 25  4  0  0  0  0
 21 22  4  0  0  0  0
 21 27  1  0  0  0  0
 22 23  4  0  0  0  0
 22 26  1  0  0  0  0
 23 24  4  0  0  0  0
 23 28  1  0  0  0  0
 24 25  4  0  0  0  0
 24 29  1  0  0  0  0
 25 30  1  0  0  0  0
 26 31  1  0  0  0  0
 26 32  1  0  0  0  0
M  END
> <BCLConfClusterSize>
1

> <ConfClashScore>
0 

> <ConfOneFourInteractionScore>
-0.979134 

> <ConfScore>
-0.0377428 

> <ConfScorePBest>
0.00490032 

> <ConfTolerance>
0.327534 

> <RosettaParamsInstructions>
M  ROOT 3
M  POLY_N_BB 3
M  POLY_CA_BB 4
M  POLY_C_BB 2
M  POLY_O_BB 5
M  POLY_IGNORE 9 10 11 12 13 14 15 16 17 18 
M  POLY_UPPER 6
M  POLY_LOWER 8
M  POLY_CHG 0
M  POLY_PROPERTIES ALPHA_AA L_AA PROTEIN AROMATIC POLYMER 
M  END

$$$$



 32 32  0  0  0  0  0  0  0  0999 V2000
   -1.5796    2.7238    3.4230 H   0  0  0  1  0  0  0  0  0  0  0  0
   -3.0855    1.4320    2.7020 C   0  0  0  1  0  0  0  0  0  0  0  0
   -0.7055    0.9356    2.8634 N   0  0  0  1  0  0  0  0  0  0  0  0
   -1.6789    1.9953    2.6456 C   0  0  0  1  0  0  0  0  0  0  0  0
   -4.0298    2.1209    3.0515 O   0  0  0  1  0  0  0  0  0  0  0  0
   -3.2127    0.1440    2.3458 N   0  0  0  1  0  0  0  0  0  0  0  0
   -0.0298    0.7837    2.1700 H   0  0  0  1  0  0  0  0  0  0  0  0
   -0.6744    0.1582    3.9462 C   0  0  0  1  0  0  0  0  0  0  0  0
   -4.4728   -0.5743    2.4634 C   0  0  0  1  0  0  0  0  0  0  0  0
    0.5072   -0.7870    4.0449 C   0  0  0  1  0  0  0  0  0  0  0  0
   -1.5327    0.1913    4.8126 O   0  0  0  1  0  0  0  0  0  0  0  0
   -2.4296   -0.3290    1.9943 H   0  0  0  1  0  0  0  0  0  0  0  0
   -4.5535   -1.2865    1.6689 H   0  0  0  1  0  0  0  0  0  0  0  0
   -5.2854    0.1193    2.4040 H   0  0  0  1  0  0  0  0  0  0  0  0
   -4.5062   -1.0840    3.4036 H   0  0  0  1  0  0  0  0  0  0  0  0
    0.2256   -1.7506    3.6748 H   0  0  0  1  0  0  0  0  0  0  0  0
    0.8107   -0.8726    5.0673 H   0  0  0  1  0  0  0  0  0  0  0  0
    1.3190   -0.4046    3.4621 H   0  0  0  1  0  0  0  0  0  0  0  0
   -1.5964    7.5319    0.7289 F   0  0  0  1  0  0  0  0  0  0  0  0
   -2.2670    6.3683    0.8300 C   0  0  0  1  0  0  0  0  0  0  0  0
   -1.5337    5.2067    1.0158 C   0  0  0  1  0  0  0  0  0  0  0  0
   -2.1808    3.9899    1.1194 C   0  0  0  1  0  0  0  0  0  0  0  0
   -3.5636    3.9317    1.0428 C   0  0  0  1  0  0  0  0  0  0  0  0
   -4.2950    5.0898    0.8576 C   0  0  0  1  0  0  0  0  0  0  0  0
   -3.6458    6.3102    0.7537 C   0  0  0  1  0  0  0  0  0  0  0  0
   -1.4352    2.6912    1.3165 C   0  0  0  1  0  0  0  0  0  0  0  0
   -0.4965    5.2509    1.0772 H   0  0  0  1  0  0  0  0  0  0  0  0
   -4.0509    3.0166    1.1248 H   0  0  0  1  0  0  0  0  0  0  0  0
   -5.3322    5.0456    0.7962 H   0  0  0  1  0  0  0  0  0  0  0  0
   -4.1963    7.1821    0.6184 H   0  0  0  1  0  0  0  0  0  0  0  0
   -1.7268    2.0212    0.5348 H   0  0  0  1  0  0  0  0  0  0  0  0
   -0.3880    2.8967    1.2386 H   0  0  0  1  0  0  0  0  0  0  0  0
  1  4  1  0  0  0  0
  2  4  1  0  0  0  0
  2  5  2  0  0  0  0
  2  6  1  0  0  0  0
  3  4  1  0  0  0  0
  3  7  1  0  0  0  0
  3  8  1  0  0  0  0
  4 26  1  0  0  0  0
  6  9  1  0  0  0  0
  6 12  1  0  0  0  0
  8 10  1  0  0  0  0
  8 11  2  0  0  0  0
  9 13  1  0  0  0  0
  9 14  1  0  0  0  0
  9 15  1  0  0  0  0
 10 16  1  0  0  0  0
 10 17  1  0  0  0  0
 10 18  1  0  0  0  0
 19 20  1  0  0  0  0
 20 21  4  0  0  0  0
 20 25  4  0  0  0  0
 21 22  4  0  0  0  0
 21 27  1  0  0  0  0
 22 23  4  0  0  0  0
 22 26  1  0  0  0  0
 23 24  4  0  0  0  0
 23 28  1  0  0  0  0
 24 25  4  0  0  0  0
 24 29  1  0  0  0  0
 25 30  1  0  0  0  0
 26 31  1  0  0  0  0
 26 32  1  0  0  0  0
M  END
> <BCLConfClusterSize>
1

> <ConfClashScore>
0 

> <ConfOneFourInteractionScore>
-0.960318 

> <ConfScore>
-0.0377053 

> <ConfScorePBest>
0.00487184 

> <ConfTolerance>
0.562382 

> <RosettaParamsInstructions>
M  ROOT 3
M  POLY_N_BB 3
M  POLY_CA_BB 4
M  POLY_C_BB 2
M  POLY_O_BB 5
M  POLY_IGNORE 9 10 11 12 13 14 15 16 17 18 
M  POLY_UPPER 6
M  POLY_LOWER 8
M  POLY_CHG 0
M  POLY_PROPERTIES ALPHA_AA L_AA PROTEIN AROMATIC POLYMER 
M  END

$$$$



 32 32  0  0  0  0  0  0  0  0999 V2000
   -0.4710    3.3629    3.0996 H   0  0  0  1  0  0  0  0  0  0  0  0
   -2.1529    2.2482    3.7132 C   0  0  0  1  0  0  0  0  0  0  0  0
   -0.0594    1.3555    2.8850 N   0  0  0  1  0  0  0  0  0  0  0  0
   -0.9774    2.4791    2.7722 C   0  0  0  1  0  0  0  0  0  0  0  0
   -2.5817    1.1184    3.9442 O   0  0  0  1  0  0  0  0  0  0  0  0
   -2.6499    3.3771    4.2429 N   0  0  0  1  0  0  0  0  0  0  0  0
    0.1911    0.8661    2.0737 H   0  0  0  1  0  0  0  0  0  0  0  0
    0.4538    0.9680    4.0561 C   0  0  0  1  0  0  0  0  0  0  0  0
   -3.8100    3.3786    5.1215 C   0  0  0  1  0  0  0  0  0  0  0  0
    1.4000   -0.2100    4.0010 C   0  0  0  1  0  0  0  0  0  0  0  0
    0.1854    1.5220    5.1213 O   0  0  0  1  0  0  0  0  0  0  0  0
   -2.2164    4.2300    4.0304 H   0  0  0  1  0  0  0  0  0  0  0  0
   -4.4115    2.5169    4.9203 H   0  0  0  1  0  0  0  0  0  0  0  0
   -4.3862    4.2636    4.9495 H   0  0  0  1  0  0  0  0  0  0  0  0
   -3.4851    3.3563    6.1408 H   0  0  0  1  0  0  0  0  0  0  0  0
    2.1320   -0.0449    3.2382 H   0  0  0  1  0  0  0  0  0  0  0  0
    0.8487   -1.0999    3.7792 H   0  0  0  1  0  0  0  0  0  0  0  0
    1.8889   -0.3191    4.9465 H   0  0  0  1  0  0  0  0  0  0  0  0
   -1.6537    7.5575    0.7223 F   0  0  0  1  0  0  0  0  0  0  0  0
   -2.2545    6.3571    0.8321 C   0  0  0  1  0  0  0  0  0  0  0  0
   -1.5311    5.1894    1.0180 C   0  0  0  1  0  0  0  0  0  0  0  0
   -2.1883    3.9779    1.1203 C   0  0  0  1  0  0  0  0  0  0  0  0
   -3.5715    3.9312    1.0424 C   0  0  0  1  0  0  0  0  0  0  0  0
   -4.2931    5.0954    0.8571 C   0  0  0  1  0  0  0  0  0  0  0  0
   -3.6337    6.3104    0.7545 C   0  0  0  1  0  0  0  0  0  0  0  0
   -1.4001    2.7045    1.3170 C   0  0  0  1  0  0  0  0  0  0  0  0
   -0.4935    5.2249    1.0805 H   0  0  0  1  0  0  0  0  0  0  0  0
   -4.0664    3.0201    1.1234 H   0  0  0  1  0  0  0  0  0  0  0  0
   -5.3306    5.0598    0.7946 H   0  0  0  1  0  0  0  0  0  0  0  0
   -4.1768    7.1869    0.6190 H   0  0  0  1  0  0  0  0  0  0  0  0
   -2.0048    1.8782    1.0061 H   0  0  0  1  0  0  0  0  0  0  0  0
   -0.5202    2.7514    0.7101 H   0  0  0  1  0  0  0  0  0  0  0  0
  1  4  1  0  0  0  0
  2  4  1  0  0  0  0
  2  5  2  0  0  0  0
  2  6  1  0  0  0  0
  3  4  1  0  0  0  0
  3  7  1  0  0  0  0
  3  8  1  0  0  0  0
  4 26  1  0  0  0  0
  6  9  1  0  0  0  0
  6 12  1  0  0  0  0
  8 10  1  0  0  0  0
  8 11  2  0  0  0  0
  9 13  1  0  0  0  0
  9 14  1  0  0  0  0
  9 15  1  0  0  0  0
 10 16  1  0  0  0  0
 10 17  1  0  0  0  0
 10 18  1  0  0  0  0
 19 20  1  0  0  0  0
 20 21  4  0  0  0  0
 20 25  4  0  0  0  0
 21 22  4  0  0  0  0
 21 27  1  0  0  0  0
 22 23  4  0  0  0  0
 22 26  1  0  0  0  0
 23 24  4  0  0  0  0
 23 28  1  0  0  0  0
 24 25  4  0  0  0  0
 24 29  1  0  0  0  0
 25 30  1  0  0  0  0
 26 31  1  0  0  0  0
 26 32  1  0  0  0  0
M  END
> <BCLConfClusterSize>
1

> <ConfClashScore>
0 

> <ConfOneFourInteractionScore>
-0.978127 

> <ConfScore>
-0.0372509 

> <ConfScorePBest>
0.00484336 

> <ConfTolerance>
0.241036 

> <RosettaParamsInstructions>
M  ROOT 3
M  POLY_N_BB 3
M  POLY_CA_BB 4
M  POLY_C_BB 2
M  POLY_O_BB 5
M  POLY_IGNORE 9 10 11 12 13 14 15 16 17 18 
M  POLY_UPPER 6
M  POLY_LOWER 8
M  POLY_CHG 0
M  POLY_PROPERTIES ALPHA_AA L_AA PROTEIN AROMATIC POLYMER 
M  END

$$$$



 32 32  0  0  0  0  0  0  0  0999 V2000
   -1.9333    1.7466   -0.5330 H   0  0  0  1  0  0  0  0  0  0  0  0
   -0.4363    3.1602   -1.0289 C   0  0  0  1  0  0  0  0  0  0  0  0
   -0.1000    0.9980    0.0586 N   0  0  0  1  0  0  0  0  0  0  0  0
   -1.0266    2.1081   -0.0947 C   0  0  0  1  0  0  0  0  0  0  0  0
    0.7646    3.3572   -1.1146 O   0  0  0  1  0  0  0  0  0  0  0  0
   -1.2583    3.8936   -1.7811 N   0  0  0  1  0  0  0  0  0  0  0  0
    0.2500    0.7721    0.9456 H   0  0  0  1  0  0  0  0  0  0  0  0
    0.2768    0.2823   -1.0119 C   0  0  0  1  0  0  0  0  0  0  0  0
   -0.8329    4.9036   -2.7386 C   0  0  0  1  0  0  0  0  0  0  0  0
    1.2821   -0.8213   -0.7459 C   0  0  0  1  0  0  0  0  0  0  0  0
   -0.1513    0.4915   -2.1350 O   0  0  0  1  0  0  0  0  0  0  0  0
   -2.2211    3.7408   -1.6814 H   0  0  0  1  0  0  0  0  0  0  0  0
    0.1785    4.7141   -3.0320 H   0  0  0  1  0  0  0  0  0  0  0  0
   -0.8977    5.8718   -2.2878 H   0  0  0  1  0  0  0  0  0  0  0  0
   -1.4666    4.8675   -3.5999 H   0  0  0  1  0  0  0  0  0  0  0  0
    2.0709   -0.4447   -0.1287 H   0  0  0  1  0  0  0  0  0  0  0  0
    1.6888   -1.1643   -1.6742 H   0  0  0  1  0  0  0  0  0  0  0  0
    0.7960   -1.6335   -0.2470 H   0  0  0  1  0  0  0  0  0  0  0  0
   -1.6193    7.5356    0.7210 F   0  0  0  1  0  0  0  0  0  0  0  0
   -2.2608    6.3566    0.8327 C   0  0  0  1  0  0  0  0  0  0  0  0
   -1.5384    5.1907    1.0334 C   0  0  0  1  0  0  0  0  0  0  0  0
   -2.1962    3.9801    1.1427 C   0  0  0  1  0  0  0  0  0  0  0  0
   -3.5789    3.9326    1.0569 C   0  0  0  1  0  0  0  0  0  0  0  0
   -4.2994    5.0950    0.8568 C   0  0  0  1  0  0  0  0  0  0  0  0
   -3.6395    6.3091    0.7472 C   0  0  0  1  0  0  0  0  0  0  0  0
   -1.3669    2.7229    1.2566 C   0  0  0  1  0  0  0  0  0  0  0  0
   -0.5013    5.2269    1.1018 H   0  0  0  1  0  0  0  0  0  0  0  0
   -4.0742    3.0222    1.1431 H   0  0  0  1  0  0  0  0  0  0  0  0
   -5.3365    5.0588    0.7884 H   0  0  0  1  0  0  0  0  0  0  0  0
   -4.1818    7.1843    0.6006 H   0  0  0  1  0  0  0  0  0  0  0  0
   -0.4543    2.9615    1.7618 H   0  0  0  1  0  0  0  0  0  0  0  0
   -1.9149    2.0042    1.8295 H   0  0  0  1  0  0  0  0  0  0  0  0
  1  4  1  0  0  0  0
  2  4  1  0  0  0  0
  2  5  2  0  0  0  0
  2  6  1  0  0  0  0
  3  4  1  0  0  0  0
  3  7  1  0  0  0  0
  3  8  1  0  0  0  0
  4 26  1  0  0  0  0
  6  9  1  0  0  0  0
  6 12  1  0  0  0  0
  8 10  1  0  0  0  0
  8 11  2  0  0  0  0
  9 13  1  0  0  0  0
  9 14  1  0  0  0  0
  9 15  1  0  0  0  0
 10 16  1  0  0  0  0
 10 17  1  0  0  0  0
 10 18  1  0  0  0  0
 19 20  1  0  0  0  0
 20 21  4  0  0  0  0
 20 25  4  0  0  0  0
 21 22  4  0  0  0  0
 21 27  1  0  0  0  0
 22 23  4  0  0  0  0
 22 26  1  0  0  0  0
 23 24  4  0  0  0  0
 23 28  1  0  0  0  0
 24 25  4  0  0  0  0
 24 29  1  0  0  0  0
 25 30  1  0  0  0  0
 26 31  1  0  0  0  0
 26 32  1  0  0  0  0
M  END
> <BCLConfClusterSize>
1

> <ConfClashScore>
0 

> <ConfOneFourInteractionScore>
-0.985807 

> <ConfScore>
-0.0369081 

> <ConfScorePBest>
0.00481488 

> <ConfTolerance>
0.320214 

> <RosettaParamsInstructions>
M  ROOT 3
M  POLY_N_BB 3
M  POLY_CA_BB 4
M  POLY_C_BB 2
M  POLY_O_BB 5
M  POLY_IGNORE 9 10 11 12 13 14 15 16 17 18 
M  POLY_UPPER 6
M  POLY_LOWER 8
M  POLY_CHG 0
M  POLY_PROPERTIES ALPHA_AA L_AA PROTEIN AROMATIC POLYMER 
M  END

$$$$



 32 32  0  0  0  0  0  0  0  0999 V2000
   -0.8280    3.2096    3.3072 H   0  0  0  1  0  0  0  0  0  0  0  0
   -2.5301    1.9600    3.3871 C   0  0  0  1  0  0  0  0  0  0  0  0
   -0.2372    1.2650    2.9287 N   0  0  0  1  0  0  0  0  0  0  0  0
   -1.1930    2.3525    2.7810 C   0  0  0  1  0  0  0  0  0  0  0  0
   -3.2562    1.1355    2.8334 O   0  0  0  1  0  0  0  0  0  0  0  0
   -2.8936    2.5391    4.5424 N   0  0  0  1  0  0  0  0  0  0  0  0
   -0.3645    0.4486    2.4019 H   0  0  0  1  0  0  0  0  0  0  0  0
    0.8474    1.3440    3.7889 C   0  0  0  1  0  0  0  0  0  0  0  0
   -4.1019    2.1561    5.2574 C   0  0  0  1  0  0  0  0  0  0  0  0
    1.6923    0.1214    4.0133 C   0  0  0  1  0  0  0  0  0  0  0  0
    1.0807    2.4085    4.3374 O   0  0  0  1  0  0  0  0  0  0  0  0
   -2.3256    3.2443    4.9172 H   0  0  0  1  0  0  0  0  0  0  0  0
   -3.9258    2.2113    6.3114 H   0  0  0  1  0  0  0  0  0  0  0  0
   -4.3703    1.1547    4.9929 H   0  0  0  1  0  0  0  0  0  0  0  0
   -4.8979    2.8208    4.9938 H   0  0  0  1  0  0  0  0  0  0  0  0
    1.0639   -0.7034    4.2774 H   0  0  0  1  0  0  0  0  0  0  0  0
    2.3867    0.3085    4.8055 H   0  0  0  1  0  0  0  0  0  0  0  0
    2.2277   -0.1114    3.1165 H   0  0  0  1  0  0  0  0  0  0  0  0
   -1.6190    7.5350    0.7271 F   0  0  0  1  0  0  0  0  0  0  0  0
   -2.2609    6.3557    0.8319 C   0  0  0  1  0  0  0  0  0  0  0  0
   -1.5384    5.1873    1.0178 C   0  0  0  1  0  0  0  0  0  0  0  0
   -2.1967    3.9764    1.1200 C   0  0  0  1  0  0  0  0  0  0  0  0
   -3.5799    3.9309    1.0419 C   0  0  0  1  0  0  0  0  0  0  0  0
   -4.3005    5.0957    0.8565 C   0  0  0  1  0  0  0  0  0  0  0  0
   -3.6401    6.3101    0.7541 C   0  0  0  1  0  0  0  0  0  0  0  0
   -1.3608    2.7337    1.3160 C   0  0  0  1  0  0  0  0  0  0  0  0
   -0.5009    5.2220    1.0804 H   0  0  0  1  0  0  0  0  0  0  0  0
   -4.0756    3.0202    1.1228 H   0  0  0  1  0  0  0  0  0  0  0  0
   -5.3380    5.0610    0.7940 H   0  0  0  1  0  0  0  0  0  0  0  0
   -4.1824    7.1871    0.6186 H   0  0  0  1  0  0  0  0  0  0  0  0
   -1.8335    1.9212    0.8047 H   0  0  0  1  0  0  0  0  0  0  0  0
   -0.3920    2.9051    0.8955 H   0  0  0  1  0  0  0  0  0  0  0  0
  1  4  1  0  0  0  0
  2  4  1  0  0  0  0
  2  5  2  0  0  0  0
  2  6  1  0  0  0  0
  3  4  1  0  0  0  0
  3  7  1  0  0  0  0
  3  8  1  0  0  0  0
  4 26  1  0  0  0  0
  6  9  1  0  0  0  0
  6 12  1  0  0  0  0
  8 10  1  0  0  0  0
  8 11  2  0  0  0  0
  9 13  1  0  0  0  0
  9 14  1  0  0  0  0
  9 15  1  0  0  0  0
 10 16  1  0  0  0  0
 10 17  1  0  0  0  0
 10 18  1  0  0  0  0
 19 20  1  0  0  0  0
 20 21  4  0  0  0  0
 20 25  4  0  0  0  0
 21 22  4  0  0  0  0
 21 27  1  0  0  0  0
 22 23  4  0  0  0  0
 22 26  1  0  0  0  0
 23 24  4  0  0  0  0
 23 28  1  0  0  0  0
 24 25  4  0  0  0  0
 24 29  1  0  0  0  0
 25 30  1  0  0  0  0
 26 31  1  0  0  0  0
 26 32  1  0  0  0  0
M  END
> <BCLConfClusterSize>
1

> <ConfClashScore>
0 

> <ConfOneFourInteractionScore>
-0.979134 

> <ConfScore>
-0.036872 

> <ConfScorePBest>
0.00478639 

> <ConfTolerance>
0.351113 

> <RosettaParamsInstructions>
M  ROOT 3
M  POLY_N_BB 3
M  POLY_CA_BB 4
M  POLY_C_BB 2
M  POLY_O_BB 5
M  POLY_IGNORE 9 10 11 12 13 14 15 16 17 18 
M  POLY_UPPER 6
M  POLY_LOWER 8
M  POLY_CHG 0
M  POLY_PROPERTIES ALPHA_AA L_AA PROTEIN AROMATIC POLYMER 
M  END

$$$$



 32 32  0  0  0  0  0  0  0  0999 V2000
   -1.6516    2.6351    3.3953 H   0  0  0  1  0  0  0  0  0  0  0  0
   -0.2852    1.1178    2.8999 C   0  0  0  1  0  0  0  0  0  0  0  0
    0.1585    3.5464    3.0401 N   0  0  0  1  0  0  0  0  0  0  0  0
   -0.8265    2.5231    2.7232 C   0  0  0  1  0  0  0  0  0  0  0  0
   -0.9367    0.1357    2.5541 O   0  0  0  1  0  0  0  0  0  0  0  0
    0.9353    1.0280    3.4515 N   0  0  0  1  0  0  0  0  0  0  0  0
    0.8911    3.7091    2.4098 H   0  0  0  1  0  0  0  0  0  0  0  0
    0.0967    4.2993    4.2029 C   0  0  0  1  0  0  0  0  0  0  0  0
    1.4756   -0.2307    3.9430 C   0  0  0  1  0  0  0  0  0  0  0  0
    1.2621    5.1747    4.5691 C   0  0  0  1  0  0  0  0  0  0  0  0
   -0.9047    4.2256    4.8916 O   0  0  0  1  0  0  0  0  0  0  0  0
    1.4815    1.8383    3.5260 H   0  0  0  1  0  0  0  0  0  0  0  0
    0.6790   -0.8402    4.3156 H   0  0  0  1  0  0  0  0  0  0  0  0
    2.1735   -0.0359    4.7303 H   0  0  0  1  0  0  0  0  0  0  0  0
    1.9716   -0.7417    3.1443 H   0  0  0  1  0  0  0  0  0  0  0  0
    2.0870    4.5635    4.8708 H   0  0  0  1  0  0  0  0  0  0  0  0
    0.9834    5.8204    5.3755 H   0  0  0  1  0  0  0  0  0  0  0  0
    1.5458    5.7634    3.7219 H   0  0  0  1  0  0  0  0  0  0  0  0
   -1.6190    7.5350    0.7271 F   0  0  0  1  0  0  0  0  0  0  0  0
   -2.2609    6.3557    0.8319 C   0  0  0  1  0  0  0  0  0  0  0  0
   -1.5384    5.1873    1.0178 C   0  0  0  1  0  0  0  0  0  0  0  0
   -2.1967    3.9764    1.1200 C   0  0  0  1  0  0  0  0  0  0  0  0
   -3.5799    3.9309    1.0419 C   0  0  0  1  0  0  0  0  0  0  0  0
   -4.3005    5.0957    0.8565 C   0  0  0  1  0  0  0  0  0  0  0  0
   -3.6401    6.3101    0.7541 C   0  0  0  1  0  0  0  0  0  0  0  0
   -1.3608    2.7337    1.3160 C   0  0  0  1  0  0  0  0  0  0  0  0
   -0.5009    5.2220    1.0804 H   0  0  0  1  0  0  0  0  0  0  0  0
   -4.0756    3.0202    1.1228 H   0  0  0  1  0  0  0  0  0  0  0  0
   -5.3380    5.0610    0.7940 H   0  0  0  1  0  0  0  0  0  0  0  0
   -4.1824    7.1871    0.6186 H   0  0  0  1  0  0  0  0  0  0  0  0
   -1.9636    1.8869    1.0617 H   0  0  0  1  0  0  0  0  0  0  0  0
   -0.5249    2.7898    0.6505 H   0  0  0  1  0  0  0  0  0  0  0  0
  1  4  1  0  0  0  0
  2  4  1  0  0  0  0
  2  5  2  0  0  0  0
  2  6  1  0  0  0  0
  3  4  1  0  0  0  0
  3  7  1  0  0  0  0
  3  8  1  0  0  0  0
  4 26  1  0  0  0  0
  6  9  1  0  0  0  0
  6 12  1  0  0  0  0
  8 10  1  0  0  0  0
  8 11  2  0  0  0  0
  9 13  1  0  0  0  0
  9 14  1  0  0  0  0
  9 15  1  0  0  0  0
 10 16  1  0  0  0  0
 10 17  1  0  0  0  0
 10 18  1  0  0  0  0
 19 20  1  0  0  0  0
 20 21  4  0  0  0  0
 20 25  4  0  0  0  0
 21 22  4  0  0  0  0
 21 27  1  0  0  0  0
 22 23  4  0  0  0  0
 22 26  1  0  0  0  0
 23 24  4  0  0  0  0
 23 28  1  0  0  0  0
 24 25  4  0  0  0  0
 24 29  1  0  0  0  0
 25 30  1  0  0  0  0
 26 31  1  0  0  0  0
 26 32  1  0  0  0  0
M  END
> <BCLConfClusterSize>
1

> <ConfClashScore>
0 

> <ConfOneFourInteractionScore>
-0.956443 

> <ConfScore>
-0.0365076 

> <ConfScorePBest>
0.00475791 

> <ConfTolerance>
0.353007 

> <RosettaParamsInstructions>
M  ROOT 3
M  POLY_N_BB 3
M  POLY_CA_BB 4
M  POLY_C_BB 2
M  POLY_O_BB 5
M  POLY_IGNORE 9 10 11 12 13 14 15 16 17 18 
M  POLY_UPPER 6
M  POLY_LOWER 8
M  POLY_CHG 0
M  POLY_PROPERTIES ALPHA_AA L_AA PROTEIN AROMATIC POLYMER 
M  END

$$$$



 32 32  0  0  0  0  0  0  0  0999 V2000
   -0.3919    1.4398    2.5973 H   0  0  0  1  0  0  0  0  0  0  0  0
   -0.4056    3.3138    3.5377 C   0  0  0  1  0  0  0  0  0  0  0  0
   -2.2600    1.7351    3.3952 N   0  0  0  1  0  0  0  0  0  0  0  0
   -1.0871    2.2487    2.6825 C   0  0  0  1  0  0  0  0  0  0  0  0
    0.7653    3.6367    3.3421 O   0  0  0  1  0  0  0  0  0  0  0  0
   -1.1638    3.8615    4.5007 N   0  0  0  1  0  0  0  0  0  0  0  0
   -3.1287    1.6968    2.9434 H   0  0  0  1  0  0  0  0  0  0  0  0
   -2.1474    1.3189    4.6598 C   0  0  0  1  0  0  0  0  0  0  0  0
   -0.6401    4.8439    5.4380 C   0  0  0  1  0  0  0  0  0  0  0  0
   -3.4263    0.8236    5.3066 C   0  0  0  1  0  0  0  0  0  0  0  0
   -1.0846    1.3295    5.2752 O   0  0  0  1  0  0  0  0  0  0  0  0
   -2.1026    3.5904    4.5751 H   0  0  0  1  0  0  0  0  0  0  0  0
    0.1844    4.4221    5.9739 H   0  0  0  1  0  0  0  0  0  0  0  0
   -1.4086    5.1230    6.1282 H   0  0  0  1  0  0  0  0  0  0  0  0
   -0.3110    5.7089    4.9009 H   0  0  0  1  0  0  0  0  0  0  0  0
   -4.2686    1.2690    4.8197 H   0  0  0  1  0  0  0  0  0  0  0  0
   -3.4296    1.0930    6.3421 H   0  0  0  1  0  0  0  0  0  0  0  0
   -3.4832   -0.2409    5.2144 H   0  0  0  1  0  0  0  0  0  0  0  0
   -1.6538    7.5576    0.7160 F   0  0  0  1  0  0  0  0  0  0  0  0
   -2.2544    6.3578    0.8330 C   0  0  0  1  0  0  0  0  0  0  0  0
   -1.5312    5.1923    1.0335 C   0  0  0  1  0  0  0  0  0  0  0  0
   -2.1882    3.9813    1.1427 C   0  0  0  1  0  0  0  0  0  0  0  0
   -3.5709    3.9329    1.0571 C   0  0  0  1  0  0  0  0  0  0  0  0
   -4.2922    5.0948    0.8572 C   0  0  0  1  0  0  0  0  0  0  0  0
   -3.6331    6.3094    0.7477 C   0  0  0  1  0  0  0  0  0  0  0  0
   -1.4043    2.6954    1.2584 C   0  0  0  1  0  0  0  0  0  0  0  0
   -0.4941    5.2292    1.1017 H   0  0  0  1  0  0  0  0  0  0  0  0
   -4.0656    3.0222    1.1433 H   0  0  0  1  0  0  0  0  0  0  0  0
   -5.3293    5.0579    0.7890 H   0  0  0  1  0  0  0  0  0  0  0  0
   -4.1760    7.1843    0.6013 H   0  0  0  1  0  0  0  0  0  0  0  0
   -1.9713    1.9196    0.7878 H   0  0  0  1  0  0  0  0  0  0  0  0
   -0.4778    2.8258    0.7393 H   0  0  0  1  0  0  0  0  0  0  0  0
  1  4  1  0  0  0  0
  2  4  1  0  0  0  0
  2  5  2  0  0  0  0
  2  6  1  0  0  0  0
  3  4  1  0  0  0  0
  3  7  1  0  0  0  0
  3  8  1  0  0  0  0
  4 26  1  0  0  0  0
  6  9  1  0  0  0  0
  6 12  1  0  0  0  0
  8 10  1  0  0  0  0
  8 11  2  0  0  0  0
  9 13  1  0  0  0  0
  9 14  1  0  0  0  0
  9 15  1  0  0  0  0
 10 16  1  0  0  0  0
 10 17  1  0  0  0  0
 10 18  1  0  0  0  0
 19 20  1  0  0  0  0
 20 21  4  0  0  0  0
 20 25  4  0  0  0  0
 21 22  4  0  0  0  0
 21 27  1  0  0  0  0
 22 23  4  0  0  0  0
 22 26  1  0  0  0  0
 23 24  4  0  0  0  0
 23 28  1  0  0  0  0
 24 25  4  0  0  0  0
 24 29  1  0  0  0  0
 25 30  1  0  0  0  0
 26 31  1  0  0  0  0
 26 32  1  0  0  0  0
M  END
> <BCLConfClusterSize>
1

> <ConfClashScore>
0 

> <ConfOneFourInteractionScore>
-0.957074 

> <ConfScore>
-0.0353295 

> <ConfScorePBest>
0.00472943 

> <ConfTolerance>
0.422453 

> <RosettaParamsInstructions>
M  ROOT 3
M  POLY_N_BB 3
M  POLY_CA_BB 4
M  POLY_C_BB 2
M  POLY_O_BB 5
M  POLY_IGNORE 9 10 11 12 13 14 15 16 17 18 
M  POLY_UPPER 6
M  POLY_LOWER 8
M  POLY_CHG 0
M  POLY_PROPERTIES ALPHA_AA L_AA PROTEIN AROMATIC POLYMER 
M  END

$$$$



 32 32  0  0  0  0  0  0  0  0999 V2000
   -0.5164    3.2434    3.1583 H   0  0  0  1  0  0  0  0  0  0  0  0
   -2.2562    2.1624    3.6103 C   0  0  0  1  0  0  0  0  0  0  0  0
   -0.1048    1.2597    2.8020 N   0  0  0  1  0  0  0  0  0  0  0  0
   -1.0236    2.3876    2.7642 C   0  0  0  1  0  0  0  0  0  0  0  0
   -3.0380    1.2477    3.3552 O   0  0  0  1  0  0  0  0  0  0  0  0
   -2.4704    2.9888    4.6454 N   0  0  0  1  0  0  0  0  0  0  0  0
    0.0252    0.7281    1.9890 H   0  0  0  1  0  0  0  0  0  0  0  0
    0.5733    0.9207    3.9158 C   0  0  0  1  0  0  0  0  0  0  0  0
   -3.7479    2.9711    5.3423 C   0  0  0  1  0  0  0  0  0  0  0  0
    1.3308   -0.3871    3.7938 C   0  0  0  1  0  0  0  0  0  0  0  0
    0.5973    1.5858    4.9506 O   0  0  0  1  0  0  0  0  0  0  0  0
   -1.7652    3.6056    4.9327 H   0  0  0  1  0  0  0  0  0  0  0  0
   -4.0470    1.9582    5.5141 H   0  0  0  1  0  0  0  0  0  0  0  0
   -4.4863    3.4644    4.7455 H   0  0  0  1  0  0  0  0  0  0  0  0
   -3.6496    3.4776    6.2797 H   0  0  0  1  0  0  0  0  0  0  0  0
    0.6355   -1.1966    3.7149 H   0  0  0  1  0  0  0  0  0  0  0  0
    1.9432   -0.5264    4.6601 H   0  0  0  1  0  0  0  0  0  0  0  0
    1.9483   -0.3612    2.9203 H   0  0  0  1  0  0  0  0  0  0  0  0
   -1.6228    7.5417    0.7261 F   0  0  0  1  0  0  0  0  0  0  0  0
   -2.2608    6.3603    0.8314 C   0  0  0  1  0  0  0  0  0  0  0  0
   -1.5345    5.1943    1.0172 C   0  0  0  1  0  0  0  0  0  0  0  0
   -2.1888    3.9813    1.1199 C   0  0  0  1  0  0  0  0  0  0  0  0
   -3.5719    3.9313    1.0424 C   0  0  0  1  0  0  0  0  0  0  0  0
   -4.2963    5.0937    0.8570 C   0  0  0  1  0  0  0  0  0  0  0  0
   -3.6399    6.3103    0.7541 C   0  0  0  1  0  0  0  0  0  0  0  0
   -1.3975    2.7098    1.3166 C   0  0  0  1  0  0  0  0  0  0  0  0
   -0.4971    5.2324    1.0794 H   0  0  0  1  0  0  0  0  0  0  0  0
   -4.0646    3.0190    1.1236 H   0  0  0  1  0  0  0  0  0  0  0  0
   -5.3338    5.0556    0.7949 H   0  0  0  1  0  0  0  0  0  0  0  0
   -4.1852    7.1855    0.6187 H   0  0  0  1  0  0  0  0  0  0  0  0
   -1.9802    1.8964    0.9373 H   0  0  0  1  0  0  0  0  0  0  0  0
   -0.4921    2.7940    0.7527 H   0  0  0  1  0  0  0  0  0  0  0  0
  1  4  1  0  0  0  0
  2  4  1  0  0  0  0
  2  5  2  0  0  0  0
  2  6  1  0  0  0  0
  3  4  1  0  0  0  0
  3  7  1  0  0  0  0
  3  8  1  0  0  0  0
  4 26  1  0  0  0  0
  6  9  1  0  0  0  0
  6 12  1  0  0  0  0
  8 10  1  0  0  0  0
  8 11  2  0  0  0  0
  9 13  1  0  0  0  0
  9 14  1  0  0  0  0
  9 15  1  0  0  0  0
 10 16  1  0  0  0  0
 10 17  1  0  0  0  0
 10 18  1  0  0  0  0
 19 20  1  0  0  0  0
 20 21  4  0  0  0  0
 20 25  4  0  0  0  0
 21 22  4  0  0  0  0
 21 27  1  0  0  0  0
 22 23  4  0  0  0  0
 22 26  1  0  0  0  0
 23 24  4  0  0  0  0
 23 28  1  0  0  0  0
 24 25  4  0  0  0  0
 24 29  1  0  0  0  0
 25 30  1  0  0  0  0
 26 31  1  0  0  0  0
 26 32  1  0  0  0  0
M  END
> <BCLConfClusterSize>
1

> <ConfClashScore>
0 

> <ConfOneFourInteractionScore>
-0.985807 

> <ConfScore>
-0.0307596 

> <ConfScorePBest>
0.00470095 

> <ConfTolerance>
0.336949 

> <RosettaParamsInstructions>
M  ROOT 3
M  POLY_N_BB 3
M  POLY_CA_BB 4
M  POLY_C_BB 2
M  POLY_O_BB 5
M  POLY_IGNORE 9 10 11 12 13 14 15 16 17 18 
M  POLY_UPPER 6
M  POLY_LOWER 8
M  POLY_CHG 0
M  POLY_PROPERTIES ALPHA_AA L_AA PROTEIN AROMATIC POLYMER 
M  END

$$$$



 32 32  0  0  0  0  0  0  0  0999 V2000
   -0.4243    2.5258   -0.4966 H   0  0  0  1  0  0  0  0  0  0  0  0
   -0.1811    0.7016    0.5449 C   0  0  0  1  0  0  0  0  0  0  0  0
   -2.2080    1.4786   -0.5767 N   0  0  0  1  0  0  0  0  0  0  0  0
   -1.0166    1.9089    0.1464 C   0  0  0  1  0  0  0  0  0  0  0  0
   -0.7002   -0.3950    0.7485 O   0  0  0  1  0  0  0  0  0  0  0  0
    1.1393    0.9172    0.6559 N   0  0  0  1  0  0  0  0  0  0  0  0
   -2.6018    0.6070   -0.3633 H   0  0  0  1  0  0  0  0  0  0  0  0
   -2.7810    2.2315   -1.5200 C   0  0  0  1  0  0  0  0  0  0  0  0
    2.0717   -0.1396    1.0186 C   0  0  0  1  0  0  0  0  0  0  0  0
   -4.0030    1.6326   -2.1887 C   0  0  0  1  0  0  0  0  0  0  0  0
   -2.3585    3.3421   -1.8392 O   0  0  0  1  0  0  0  0  0  0  0  0
    1.4874    1.8175    0.4868 H   0  0  0  1  0  0  0  0  0  0  0  0
    2.0732   -0.8915    0.2572 H   0  0  0  1  0  0  0  0  0  0  0  0
    1.7724   -0.5752    1.9490 H   0  0  0  1  0  0  0  0  0  0  0  0
    3.0551    0.2707    1.1162 H   0  0  0  1  0  0  0  0  0  0  0  0
   -4.6180    1.1600   -1.4516 H   0  0  0  1  0  0  0  0  0  0  0  0
   -3.6939    0.9079   -2.9128 H   0  0  0  1  0  0  0  0  0  0  0  0
   -4.5595    2.4071   -2.6737 H   0  0  0  1  0  0  0  0  0  0  0  0
   -1.5919    7.5240    0.7358 F   0  0  0  1  0  0  0  0  0  0  0  0
   -2.2670    6.3624    0.8299 C   0  0  0  1  0  0  0  0  0  0  0  0
   -1.5377    5.1960    1.0011 C   0  0  0  1  0  0  0  0  0  0  0  0
   -2.1895    3.9811    1.0971 C   0  0  0  1  0  0  0  0  0  0  0  0
   -3.5729    3.9295    1.0276 C   0  0  0  1  0  0  0  0  0  0  0  0
   -4.3003    5.0923    0.8569 C   0  0  0  1  0  0  0  0  0  0  0  0
   -3.6464    6.3108    0.7606 C   0  0  0  1  0  0  0  0  0  0  0  0
   -1.3920    2.7285    1.3740 C   0  0  0  1  0  0  0  0  0  0  0  0
   -0.5000    5.2352    1.0573 H   0  0  0  1  0  0  0  0  0  0  0  0
   -4.0637    3.0157    1.1038 H   0  0  0  1  0  0  0  0  0  0  0  0
   -5.3380    5.0531    0.8007 H   0  0  0  1  0  0  0  0  0  0  0  0
   -4.1938    7.1863    0.6363 H   0  0  0  1  0  0  0  0  0  0  0  0
   -0.4876    3.0156    1.8684 H   0  0  0  1  0  0  0  0  0  0  0  0
   -1.9713    2.1051    2.0227 H   0  0  0  1  0  0  0  0  0  0  0  0
  1  4  1  0  0  0  0
  2  4  1  0  0  0  0
  2  5  2  0  0  0  0
  2  6  1  0  0  0  0
  3  4  1  0  0  0  0
  3  7  1  0  0  0  0
  3  8  1  0  0  0  0
  4 26  1  0  0  0  0
  6  9  1  0  0  0  0
  6 12  1  0  0  0  0
  8 10  1  0  0  0  0
  8 11  2  0  0  0  0
  9 13  1  0  0  0  0
  9 14  1  0  0  0  0
  9 15  1  0  0  0  0
 10 16  1  0  0  0  0
 10 17  1  0  0  0  0
 10 18  1  0  0  0  0
 19 20  1  0  0  0  0
 20 21  4  0  0  0  0
 20 25  4  0  0  0  0
 21 22  4  0  0  0  0
 21 27  1  0  0  0  0
 22 23  4  0  0  0  0
 22 26  1  0  0  0  0
 23 24  4  0  0  0  0
 23 28  1  0  0  0  0
 24 25  4  0  0  0  0
 24 29  1  0  0  0  0
 25 30  1  0  0  0  0
 26 31  1  0  0  0  0
 26 32  1  0  0  0  0
M  END
> <BCLConfClusterSize>
1

> <ConfClashScore>
0 

> <ConfOneFourInteractionScore>
-0.990503 

> <ConfScore>
-0.0268413 

> <ConfScorePBest>
0.00467247 

> <ConfTolerance>
0.386255 

> <RosettaParamsInstructions>
M  ROOT 3
M  POLY_N_BB 3
M  POLY_CA_BB 4
M  POLY_C_BB 2
M  POLY_O_BB 5
M  POLY_IGNORE 9 10 11 12 13 14 15 16 17 18 
M  POLY_UPPER 6
M  POLY_LOWER 8
M  POLY_CHG 0
M  POLY_PROPERTIES ALPHA_AA L_AA PROTEIN AROMATIC POLYMER 
M  END

$$$$



 32 32  0  0  0  0  0  0  0  0999 V2000
   -0.2960    2.7865   -0.3944 H   0  0  0  1  0  0  0  0  0  0  0  0
    0.2004    0.9840    0.5642 C   0  0  0  1  0  0  0  0  0  0  0  0
   -1.8672    1.4932   -0.6910 N   0  0  0  1  0  0  0  0  0  0  0  0
   -0.8169    2.0324    0.1578 C   0  0  0  1  0  0  0  0  0  0  0  0
    1.0071    1.1946    1.4660 O   0  0  0  1  0  0  0  0  0  0  0  0
    0.1552   -0.1692   -0.1215 N   0  0  0  1  0  0  0  0  0  0  0  0
   -2.5001    0.8495   -0.3094 H   0  0  0  1  0  0  0  0  0  0  0  0
   -1.9996    1.8447   -1.9732 C   0  0  0  1  0  0  0  0  0  0  0  0
    0.9067   -1.3453    0.2862 C   0  0  0  1  0  0  0  0  0  0  0  0
   -3.1254    1.1275   -2.7203 C   0  0  0  1  0  0  0  0  0  0  0  0
   -1.3450    2.7280   -2.5254 O   0  0  0  1  0  0  0  0  0  0  0  0
   -0.4039   -0.2202   -0.9248 H   0  0  0  1  0  0  0  0  0  0  0  0
    1.9548   -1.1419    0.2148 H   0  0  0  1  0  0  0  0  0  0  0  0
    0.6586   -2.1663   -0.3535 H   0  0  0  1  0  0  0  0  0  0  0  0
    0.6599   -1.5932    1.2974 H   0  0  0  1  0  0  0  0  0  0  0  0
   -3.6844    0.5272   -2.0332 H   0  0  0  1  0  0  0  0  0  0  0  0
   -2.7066    0.5021   -3.4809 H   0  0  0  1  0  0  0  0  0  0  0  0
   -3.7728    1.8514   -3.1695 H   0  0  0  1  0  0  0  0  0  0  0  0
   -1.5954    7.5303    0.7349 F   0  0  0  1  0  0  0  0  0  0  0  0
   -2.2669    6.3666    0.8294 C   0  0  0  1  0  0  0  0  0  0  0  0
   -1.5340    5.2025    1.0003 C   0  0  0  1  0  0  0  0  0  0  0  0
   -2.1820    3.9856    1.0967 C   0  0  0  1  0  0  0  0  0  0  0  0
   -3.5653    3.9298    1.0278 C   0  0  0  1  0  0  0  0  0  0  0  0
   -4.2963    5.0903    0.8574 C   0  0  0  1  0  0  0  0  0  0  0  0
   -3.6462    6.3108    0.7608 C   0  0  0  1  0  0  0  0  0  0  0  0
   -1.4273    2.7072    1.3753 C   0  0  0  1  0  0  0  0  0  0  0  0
   -0.4963    5.2448    1.0560 H   0  0  0  1  0  0  0  0  0  0  0  0
   -4.0532    3.0145    1.1043 H   0  0  0  1  0  0  0  0  0  0  0  0
   -5.3340    5.0480    0.8017 H   0  0  0  1  0  0  0  0  0  0  0  0
   -4.1964    7.1846    0.6366 H   0  0  0  1  0  0  0  0  0  0  0  0
   -0.6358    2.9335    2.0588 H   0  0  0  1  0  0  0  0  0  0  0  0
   -2.1055    2.0160    1.8304 H   0  0  0  1  0  0  0  0  0  0  0  0
  1  4  1  0  0  0  0
  2  4  1  0  0  0  0
  2  5  2  0  0  0  0
  2  6  1  0  0  0  0
  3  4  1  0  0  0  0
  3  7  1  0  0  0  0
  3  8  1  0  0  0  0
  4 26  1  0  0  0  0
  6  9  1  0  0  0  0
  6 12  1  0  0  0  0
  8 10  1  0  0  0  0
  8 11  2  0  0  0  0
  9 13  1  0  0  0  0
  9 14  1  0  0  0  0
  9 15  1  0  0  0  0
 10 16  1  0  0  0  0
 10 17  1  0  0  0  0
 10 18  1  0  0  0  0
 19 20  1  0  0  0  0
 20 21  4  0  0  0  0
 20 25  4  0  0  0  0
 21 22  4  0  0  0  0
 21 27  1  0  0  0  0
 22 23  4  0  0  0  0
 22 26  1  0  0  0  0
 23 24  4  0  0  0  0
 23 28  1  0  0  0  0
 24 25  4  0  0  0  0
 24 29  1  0  0  0  0
 25 30  1  0  0  0  0
 26 31  1  0  0  0  0
 26 32  1  0  0  0  0
M  END
> <BCLConfClusterSize>
1

> <ConfClashScore>
0 

> <ConfOneFourInteractionScore>
-0.960318 

> <ConfScore>
-0.0236167 

> <ConfScorePBest>
0.00464399 

> <ConfTolerance>
0.391502 

> <RosettaParamsInstructions>
M  ROOT 3
M  POLY_N_BB 3
M  POLY_CA_BB 4
M  POLY_C_BB 2
M  POLY_O_BB 5
M  POLY_IGNORE 9 10 11 12 13 14 15 16 17 18 
M  POLY_UPPER 6
M  POLY_LOWER 8
M  POLY_CHG 0
M  POLY_PROPERTIES ALPHA_AA L_AA PROTEIN AROMATIC POLYMER 
M  END

$$$$



 32 32  0  0  0  0  0  0  0  0999 V2000
   -2.2013    2.2307    3.1571 H   0  0  0  1  0  0  0  0  0  0  0  0
   -0.7153    0.8009    2.6999 C   0  0  0  1  0  0  0  0  0  0  0  0
   -0.3738    3.1621    3.4167 N   0  0  0  1  0  0  0  0  0  0  0  0
   -1.2353    2.2306    2.6971 C   0  0  0  1  0  0  0  0  0  0  0  0
    0.2725    0.4795    2.0408 O   0  0  0  1  0  0  0  0  0  0  0  0
   -1.4009   -0.0674    3.4602 N   0  0  0  1  0  0  0  0  0  0  0  0
    0.2279    3.7550    2.9199 H   0  0  0  1  0  0  0  0  0  0  0  0
   -0.4035    3.2089    4.7573 C   0  0  0  1  0  0  0  0  0  0  0  0
   -1.0819   -1.4868    3.4993 C   0  0  0  1  0  0  0  0  0  0  0  0
    0.3978    4.3270    5.3952 C   0  0  0  1  0  0  0  0  0  0  0  0
   -1.0337    2.4062    5.4406 O   0  0  0  1  0  0  0  0  0  0  0  0
   -2.1420    0.2660    4.0079 H   0  0  0  1  0  0  0  0  0  0  0  0
   -0.1179   -1.6241    3.9429 H   0  0  0  1  0  0  0  0  0  0  0  0
   -1.0750   -1.8782    2.5035 H   0  0  0  1  0  0  0  0  0  0  0  0
   -1.8182   -2.0017    4.0804 H   0  0  0  1  0  0  0  0  0  0  0  0
    1.4413    4.1584    5.2290 H   0  0  0  1  0  0  0  0  0  0  0  0
    0.2036    4.3493    6.4472 H   0  0  0  1  0  0  0  0  0  0  0  0
    0.1140    5.2622    4.9597 H   0  0  0  1  0  0  0  0  0  0  0  0
   -1.6229    7.5419    0.7201 F   0  0  0  1  0  0  0  0  0  0  0  0
   -2.2607    6.3610    0.8321 C   0  0  0  1  0  0  0  0  0  0  0  0
   -1.5347    5.1973    1.0326 C   0  0  0  1  0  0  0  0  0  0  0  0
   -2.1888    3.9847    1.1423 C   0  0  0  1  0  0  0  0  0  0  0  0
   -3.5713    3.9330    1.0571 C   0  0  0  1  0  0  0  0  0  0  0  0
   -4.2955    5.0931    0.8572 C   0  0  0  1  0  0  0  0  0  0  0  0
   -3.6393    6.3092    0.7473 C   0  0  0  1  0  0  0  0  0  0  0  0
   -1.4017    2.7007    1.2580 C   0  0  0  1  0  0  0  0  0  0  0  0
   -0.4977    5.2366    1.1005 H   0  0  0  1  0  0  0  0  0  0  0  0
   -4.0638    3.0211    1.1436 H   0  0  0  1  0  0  0  0  0  0  0  0
   -5.3325    5.0537    0.7893 H   0  0  0  1  0  0  0  0  0  0  0  0
   -4.1844    7.1828    0.6009 H   0  0  0  1  0  0  0  0  0  0  0  0
   -1.9114    1.9379    0.7074 H   0  0  0  1  0  0  0  0  0  0  0  0
   -0.4308    2.8572    0.8364 H   0  0  0  1  0  0  0  0  0  0  0  0
  1  4  1  0  0  0  0
  2  4  1  0  0  0  0
  2  5  2  0  0  0  0
  2  6  1  0  0  0  0
  3  4  1  0  0  0  0
  3  7  1  0  0  0  0
  3  8  1  0  0  0  0
  4 26  1  0  0  0  0
  6  9  1  0  0  0  0
  6 12  1  0  0  0  0
  8 10  1  0  0  0  0
  8 11  2  0  0  0  0
  9 13  1  0  0  0  0
  9 14  1  0  0  0  0
  9 15  1  0  0  0  0
 10 16  1  0  0  0  0
 10 17  1  0  0  0  0
 10 18  1  0  0  0  0
 19 20  1  0  0  0  0
 20 21  4  0  0  0  0
 20 25  4  0  0  0  0
 21 22  4  0  0  0  0
 21 27  1  0  0  0  0
 22 23  4  0  0  0  0
 22 26  1  0  0  0  0
 23 24  4  0  0  0  0
 23 28  1  0  0  0  0
 24 25  4  0  0  0  0
 24 29  1  0  0  0  0
 25 30  1  0  0  0  0
 26 31  1  0  0  0  0
 26 32  1  0  0  0  0
M  END
> <BCLConfClusterSize>
1

> <ConfClashScore>
0 

> <ConfOneFourInteractionScore>
-0.971454 

> <ConfScore>
-0.0221923 

> <ConfScorePBest>
0.00461551 

> <ConfTolerance>
0.425612 

> <RosettaParamsInstructions>
M  ROOT 3
M  POLY_N_BB 3
M  POLY_CA_BB 4
M  POLY_C_BB 2
M  POLY_O_BB 5
M  POLY_IGNORE 9 10 11 12 13 14 15 16 17 18 
M  POLY_UPPER 6
M  POLY_LOWER 8
M  POLY_CHG 0
M  POLY_PROPERTIES ALPHA_AA L_AA PROTEIN AROMATIC POLYMER 
M  END

$$$$



 32 32  0  0  0  0  0  0  0  0999 V2000
   -2.5770    1.5176    0.1322 H   0  0  0  1  0  0  0  0  0  0  0  0
   -1.2010    0.2559    1.1314 C   0  0  0  1  0  0  0  0  0  0  0  0
   -3.1677    1.3307    2.1052 N   0  0  0  1  0  0  0  0  0  0  0  0
   -2.1241    1.4691    1.1004 C   0  0  0  1  0  0  0  0  0  0  0  0
   -0.2084    0.1904    0.4080 O   0  0  0  1  0  0  0  0  0  0  0  0
   -1.5435   -0.7123    1.9860 N   0  0  0  1  0  0  0  0  0  0  0  0
   -2.9701    1.5858    3.0306 H   0  0  0  1  0  0  0  0  0  0  0  0
   -4.3978    0.8634    1.8072 C   0  0  0  1  0  0  0  0  0  0  0  0
   -0.7147   -1.9075    2.0360 C   0  0  0  1  0  0  0  0  0  0  0  0
   -5.4252    0.8286    2.9036 C   0  0  0  1  0  0  0  0  0  0  0  0
   -4.6729    0.4766    0.6721 O   0  0  0  1  0  0  0  0  0  0  0  0
   -2.3305   -0.6203    2.5627 H   0  0  0  1  0  0  0  0  0  0  0  0
   -0.8880   -2.4992    1.1616 H   0  0  0  1  0  0  0  0  0  0  0  0
   -0.9631   -2.4773    2.9069 H   0  0  0  1  0  0  0  0  0  0  0  0
    0.3165   -1.6247    2.0764 H   0  0  0  1  0  0  0  0  0  0  0  0
   -5.6175    1.8244    3.2446 H   0  0  0  1  0  0  0  0  0  0  0  0
   -5.0586    0.2379    3.7169 H   0  0  0  1  0  0  0  0  0  0  0  0
   -6.3309    0.3987    2.5297 H   0  0  0  1  0  0  0  0  0  0  0  0
   -1.6151    7.5283    0.7282 F   0  0  0  1  0  0  0  0  0  0  0  0
   -2.2609    6.3510    0.8325 C   0  0  0  1  0  0  0  0  0  0  0  0
   -1.5422    5.1803    1.0184 C   0  0  0  1  0  0  0  0  0  0  0  0
   -2.2044    3.9715    1.1201 C   0  0  0  1  0  0  0  0  0  0  0  0
   -3.5877    3.9304    1.0415 C   0  0  0  1  0  0  0  0  0  0  0  0
   -4.3045    5.0975    0.8561 C   0  0  0  1  0  0  0  0  0  0  0  0
   -3.6402    6.3099    0.7541 C   0  0  0  1  0  0  0  0  0  0  0  0
   -1.3256    2.7585    1.3152 C   0  0  0  1  0  0  0  0  0  0  0  0
   -0.5046    5.2116    1.0814 H   0  0  0  1  0  0  0  0  0  0  0  0
   -4.0863    3.0212    1.1220 H   0  0  0  1  0  0  0  0  0  0  0  0
   -5.3421    5.0661    0.7931 H   0  0  0  1  0  0  0  0  0  0  0  0
   -4.1797    7.1886    0.6186 H   0  0  0  1  0  0  0  0  0  0  0  0
   -0.5192    2.7929    0.6127 H   0  0  0  1  0  0  0  0  0  0  0  0
   -0.9329    2.7663    2.3105 H   0  0  0  1  0  0  0  0  0  0  0  0
  1  4  1  0  0  0  0
  2  4  1  0  0  0  0
  2  5  2  0  0  0  0
  2  6  1  0  0  0  0
  3  4  1  0  0  0  0
  3  7  1  0  0  0  0
  3  8  1  0  0  0  0
  4 26  1  0  0  0  0
  6  9  1  0  0  0  0
  6 12  1  0  0  0  0
  8 10  1  0  0  0  0
  8 11  2  0  0  0  0
  9 13  1  0  0  0  0
  9 14  1  0  0  0  0
  9 15  1  0  0  0  0
 10 16  1  0  0  0  0
 10 17  1  0  0  0  0
 10 18  1  0  0  0  0
 19 20  1  0  0  0  0
 20 21  4  0  0  0  0
 20 25  4  0  0  0  0
 21 22  4  0  0  0  0
 21 27  1  0  0  0  0
 22 23  4  0  0  0  0
 22 26  1  0  0  0  0
 23 24  4  0  0  0  0
 23 28  1  0  0  0  0
 24 25  4  0  0  0  0
 24 29  1  0  0  0  0
 25 30  1  0  0  0  0
 26 31  1  0  0  0  0
 26 32  1  0  0  0  0
M  END
> <BCLConfClusterSize>
1

> <ConfClashScore>
0 

> <ConfOneFourInteractionScore>
-0.930333 

> <ConfScore>
-0.0176356 

> <ConfScorePBest>
0.00458703 

> <ConfTolerance>
0.530878 

> <RosettaParamsInstructions>
M  ROOT 3
M  POLY_N_BB 3
M  POLY_CA_BB 4
M  POLY_C_BB 2
M  POLY_O_BB 5
M  POLY_IGNORE 9 10 11 12 13 14 15 16 17 18 
M  POLY_UPPER 6
M  POLY_LOWER 8
M  POLY_CHG 0
M  POLY_PROPERTIES ALPHA_AA L_AA PROTEIN AROMATIC POLYMER 
M  END

$$$$



 32 32  0  0  0  0  0  0  0  0999 V2000
   -2.2095    2.3008    3.1909 H   0  0  0  1  0  0  0  0  0  0  0  0
   -0.6274    0.9436    2.9108 C   0  0  0  1  0  0  0  0  0  0  0  0
   -0.4627    3.3414    3.5041 N   0  0  0  1  0  0  0  0  0  0  0  0
   -1.2230    2.3352    2.7778 C   0  0  0  1  0  0  0  0  0  0  0  0
    0.5200    0.7578    3.2732 O   0  0  0  1  0  0  0  0  0  0  0  0
   -1.3856   -0.1176    2.6208 N   0  0  0  1  0  0  0  0  0  0  0  0
    0.5109    3.2584    3.5796 H   0  0  0  1  0  0  0  0  0  0  0  0
   -1.0953    4.3881    4.0737 C   0  0  0  1  0  0  0  0  0  0  0  0
   -0.8371   -1.4623    2.5259 C   0  0  0  1  0  0  0  0  0  0  0  0
   -0.2022    5.4041    4.7588 C   0  0  0  1  0  0  0  0  0  0  0  0
   -2.3176    4.5263    4.0490 O   0  0  0  1  0  0  0  0  0  0  0  0
   -2.3444    0.0140    2.4668 H   0  0  0  1  0  0  0  0  0  0  0  0
    0.0682   -1.4393    1.9560 H   0  0  0  1  0  0  0  0  0  0  0  0
   -1.5456   -2.1030    2.0438 H   0  0  0  1  0  0  0  0  0  0  0  0
   -0.6306   -1.8332    3.5081 H   0  0  0  1  0  0  0  0  0  0  0  0
    0.5761    4.8957    5.2886 H   0  0  0  1  0  0  0  0  0  0  0  0
   -0.7828    5.9824    5.4468 H   0  0  0  1  0  0  0  0  0  0  0  0
    0.2303    6.0510    4.0244 H   0  0  0  1  0  0  0  0  0  0  0  0
   -1.5886    7.5181    0.7310 F   0  0  0  1  0  0  0  0  0  0  0  0
   -2.2671    6.3589    0.8311 C   0  0  0  1  0  0  0  0  0  0  0  0
   -1.5418    5.1924    1.0170 C   0  0  0  1  0  0  0  0  0  0  0  0
   -2.1972    3.9799    1.1195 C   0  0  0  1  0  0  0  0  0  0  0  0
   -3.5803    3.9310    1.0419 C   0  0  0  1  0  0  0  0  0  0  0  0
   -4.3037    5.0941    0.8565 C   0  0  0  1  0  0  0  0  0  0  0  0
   -3.6462    6.3101    0.7537 C   0  0  0  1  0  0  0  0  0  0  0  0
   -1.3583    2.7392    1.3155 C   0  0  0  1  0  0  0  0  0  0  0  0
   -0.5044    5.2295    1.0793 H   0  0  0  1  0  0  0  0  0  0  0  0
   -4.0737    3.0192    1.1230 H   0  0  0  1  0  0  0  0  0  0  0  0
   -5.3412    5.0569    0.7942 H   0  0  0  1  0  0  0  0  0  0  0  0
   -4.1907    7.1858    0.6183 H   0  0  0  1  0  0  0  0  0  0  0  0
   -1.8133    1.9323    0.7799 H   0  0  0  1  0  0  0  0  0  0  0  0
   -0.3807    2.9233    0.9212 H   0  0  0  1  0  0  0  0  0  0  0  0
  1  4  1  0  0  0  0
  2  4  1  0  0  0  0
  2  5  2  0  0  0  0
  2  6  1  0  0  0  0
  3  4  1  0  0  0  0
  3  7  1  0  0  0  0
  3  8  1  0  0  0  0
  4 26  1  0  0  0  0
  6  9  1  0  0  0  0
  6 12  1  0  0  0  0
  8 10  1  0  0  0  0
  8 11  2  0  0  0  0
  9 13  1  0  0  0  0
  9 14  1  0  0  0  0
  9 15  1  0  0  0  0
 10 16  1  0  0  0  0
 10 17  1  0  0  0  0
 10 18  1  0  0  0  0
 19 20  1  0  0  0  0
 20 21  4  0  0  0  0
 20 25  4  0  0  0  0
 21 22  4  0  0  0  0
 21 27  1  0  0  0  0
 22 23  4  0  0  0  0
 22 26  1  0  0  0  0
 23 24  4  0  0  0  0
 23 28  1  0  0  0  0
 24 25  4  0  0  0  0
 24 29  1  0  0  0  0
 25 30  1  0  0  0  0
 26 31  1  0  0  0  0
 26 32  1  0  0  0  0
M  END
> <BCLConfClusterSize>
1

> <ConfClashScore>
0 

> <ConfOneFourInteractionScore>
-0.990503 

> <ConfScore>
-0.0126906 

> <ConfScorePBest>
0.00455855 

> <ConfTolerance>
0.625086 

> <RosettaParamsInstructions>
M  ROOT 3
M  POLY_N_BB 3
M  POLY_CA_BB 4
M  POLY_C_BB 2
M  POLY_O_BB 5
M  POLY_IGNORE 9 10 11 12 13 14 15 16 17 18 
M  POLY_UPPER 6
M  POLY_LOWER 8
M  POLY_CHG 0
M  POLY_PROPERTIES ALPHA_AA L_AA PROTEIN AROMATIC POLYMER 
M  END

$$$$



 32 32  0  0  0  0  0  0  0  0999 V2000
   -1.9362    1.9288   -0.5639 H   0  0  0  1  0  0  0  0  0  0  0  0
   -0.0433    2.7828   -0.8604 C   0  0  0  1  0  0  0  0  0  0  0  0
   -0.5316    0.6602    0.2716 N   0  0  0  1  0  0  0  0  0  0  0  0
   -1.0325    2.0224    0.0014 C   0  0  0  1  0  0  0  0  0  0  0  0
    1.1496    2.5293   -0.8287 O   0  0  0  1  0  0  0  0  0  0  0  0
   -0.5672    3.7372   -1.6457 N   0  0  0  1  0  0  0  0  0  0  0  0
   -0.3844    0.4089    1.2073 H   0  0  0  1  0  0  0  0  0  0  0  0
   -0.2644   -0.2543   -0.6620 C   0  0  0  1  0  0  0  0  0  0  0  0
    0.2410    4.5035   -2.5824 C   0  0  0  1  0  0  0  0  0  0  0  0
    0.3496   -1.5471   -0.1611 C   0  0  0  1  0  0  0  0  0  0  0  0
   -0.4943   -0.0780   -1.8577 O   0  0  0  1  0  0  0  0  0  0  0  0
   -1.5273    3.9243   -1.5862 H   0  0  0  1  0  0  0  0  0  0  0  0
    0.9520    3.8569   -3.0528 H   0  0  0  1  0  0  0  0  0  0  0  0
    0.7578    5.2786   -2.0560 H   0  0  0  1  0  0  0  0  0  0  0  0
   -0.3925    4.9384   -3.3270 H   0  0  0  1  0  0  0  0  0  0  0  0
    1.1107   -1.8681   -0.8413 H   0  0  0  1  0  0  0  0  0  0  0  0
   -0.4086   -2.2991   -0.0938 H   0  0  0  1  0  0  0  0  0  0  0  0
    0.7800   -1.3863    0.8052 H   0  0  0  1  0  0  0  0  0  0  0  0
   -1.6228    7.5417    0.7261 F   0  0  0  1  0  0  0  0  0  0  0  0
   -2.2608    6.3603    0.8314 C   0  0  0  1  0  0  0  0  0  0  0  0
   -1.5345    5.1943    1.0172 C   0  0  0  1  0  0  0  0  0  0  0  0
   -2.1888    3.9813    1.1199 C   0  0  0  1  0  0  0  0  0  0  0  0
   -3.5719    3.9313    1.0424 C   0  0  0  1  0  0  0  0  0  0  0  0
   -4.2963    5.0937    0.8570 C   0  0  0  1  0  0  0  0  0  0  0  0
   -3.6399    6.3103    0.7541 C   0  0  0  1  0  0  0  0  0  0  0  0
   -1.3975    2.7098    1.3166 C   0  0  0  1  0  0  0  0  0  0  0  0
   -0.4971    5.2324    1.0794 H   0  0  0  1  0  0  0  0  0  0  0  0
   -4.0646    3.0190    1.1236 H   0  0  0  1  0  0  0  0  0  0  0  0
   -5.3338    5.0556    0.7949 H   0  0  0  1  0  0  0  0  0  0  0  0
   -4.1852    7.1855    0.6187 H   0  0  0  1  0  0  0  0  0  0  0  0
   -0.4943    2.9481    1.8385 H   0  0  0  1  0  0  0  0  0  0  0  0
   -1.9816    2.0326    1.9041 H   0  0  0  1  0  0  0  0  0  0  0  0
  1  4  1  0  0  0  0
  2  4  1  0  0  0  0
  2  5  2  0  0  0  0
  2  6  1  0  0  0  0
  3  4  1  0  0  0  0
  3  7  1  0  0  0  0
  3  8  1  0  0  0  0
  4 26  1  0  0  0  0
  6  9  1  0  0  0  0
  6 12  1  0  0  0  0
  8 10  1  0  0  0  0
  8 11  2  0  0  0  0
  9 13  1  0  0  0  0
  9 14  1  0  0  0  0
  9 15  1  0  0  0  0
 10 16  1  0  0  0  0
 10 17  1  0  0  0  0
 10 18  1  0  0  0  0
 19 20  1  0  0  0  0
 20 21  4  0  0  0  0
 20 25  4  0  0  0  0
 21 22  4  0  0  0  0
 21 27  1  0  0  0  0
 22 23  4  0  0  0  0
 22 26  1  0  0  0  0
 23 24  4  0  0  0  0
 23 28  1  0  0  0  0
 24 25  4  0  0  0  0
 24 29  1  0  0  0  0
 25 30  1  0  0  0  0
 26 31  1  0  0  0  0
 26 32  1  0  0  0  0
M  END
> <BCLConfClusterSize>
1

> <ConfClashScore>
0 

> <ConfOneFourInteractionScore>
-0.985807 

> <ConfScore>
-0.00468399 

> <ConfScorePBest>
0.00453007 

> <ConfTolerance>
0.342971 

> <RosettaParamsInstructions>
M  ROOT 3
M  POLY_N_BB 3
M  POLY_CA_BB 4
M  POLY_C_BB 2
M  POLY_O_BB 5
M  POLY_IGNORE 9 10 11 12 13 14 15 16 17 18 
M  POLY_UPPER 6
M  POLY_LOWER 8
M  POLY_CHG 0
M  POLY_PROPERTIES ALPHA_AA L_AA PROTEIN AROMATIC POLYMER 
M  END

$$$$



 32 32  0  0  0  0  0  0  0  0999 V2000
   -0.2946    1.5835    2.7180 H   0  0  0  1  0  0  0  0  0  0  0  0
    0.1290    3.6288    3.0200 C   0  0  0  1  0  0  0  0  0  0  0  0
   -1.8781    2.4393    3.7389 N   0  0  0  1  0  0  0  0  0  0  0  0
   -0.8408    2.5036    2.7155 C   0  0  0  1  0  0  0  0  0  0  0  0
   -0.1648    4.5295    3.8015 O   0  0  0  1  0  0  0  0  0  0  0  0
    1.3110    3.5688    2.3840 N   0  0  0  1  0  0  0  0  0  0  0  0
   -2.0881    3.2480    4.2509 H   0  0  0  1  0  0  0  0  0  0  0  0
   -2.5518    1.3161    4.0025 C   0  0  0  1  0  0  0  0  0  0  0  0
    2.3138    4.6162    2.5066 C   0  0  0  1  0  0  0  0  0  0  0  0
   -3.6842    1.4465    5.0025 C   0  0  0  1  0  0  0  0  0  0  0  0
   -2.2873    0.2450    3.4817 O   0  0  0  1  0  0  0  0  0  0  0  0
    1.5045    2.7927    1.8178 H   0  0  0  1  0  0  0  0  0  0  0  0
    2.0223    5.4605    1.9175 H   0  0  0  1  0  0  0  0  0  0  0  0
    3.2572    4.2487    2.1604 H   0  0  0  1  0  0  0  0  0  0  0  0
    2.3993    4.9095    3.5321 H   0  0  0  1  0  0  0  0  0  0  0  0
   -3.4960    0.8082    5.8404 H   0  0  0  1  0  0  0  0  0  0  0  0
   -4.6049    1.1620    4.5374 H   0  0  0  1  0  0  0  0  0  0  0  0
   -3.7507    2.4612    5.3352 H   0  0  0  1  0  0  0  0  0  0  0  0
   -1.5924    7.5248    0.7300 F   0  0  0  1  0  0  0  0  0  0  0  0
   -2.2671    6.3635    0.8306 C   0  0  0  1  0  0  0  0  0  0  0  0
   -1.5379    5.1994    1.0164 C   0  0  0  1  0  0  0  0  0  0  0  0
   -2.1893    3.9848    1.1194 C   0  0  0  1  0  0  0  0  0  0  0  0
   -3.5723    3.9314    1.0423 C   0  0  0  1  0  0  0  0  0  0  0  0
   -4.2996    5.0921    0.8570 C   0  0  0  1  0  0  0  0  0  0  0  0
   -3.6461    6.3102    0.7537 C   0  0  0  1  0  0  0  0  0  0  0  0
   -1.3949    2.7152    1.3161 C   0  0  0  1  0  0  0  0  0  0  0  0
   -0.5006    5.2399    1.0783 H   0  0  0  1  0  0  0  0  0  0  0  0
   -4.0627    3.0180    1.1239 H   0  0  0  1  0  0  0  0  0  0  0  0
   -5.3369    5.0515    0.7952 H   0  0  0  1  0  0  0  0  0  0  0  0
   -4.1935    7.1841    0.6183 H   0  0  0  1  0  0  0  0  0  0  0  0
   -2.0326    1.8877    1.0850 H   0  0  0  1  0  0  0  0  0  0  0  0
   -0.5708    2.7326    0.6339 H   0  0  0  1  0  0  0  0  0  0  0  0
  1  4  1  0  0  0  0
  2  4  1  0  0  0  0
  2  5  2  0  0  0  0
  2  6  1  0  0  0  0
  3  4  1  0  0  0  0
  3  7  1  0  0  0  0
  3  8  1  0  0  0  0
  4 26  1  0  0  0  0
  6  9  1  0  0  0  0
  6 12  1  0  0  0  0
  8 10  1  0  0  0  0
  8 11  2  0  0  0  0
  9 13  1  0  0  0  0
  9 14  1  0  0  0  0
  9 15  1  0  0  0  0
 10 16  1  0  0  0  0
 10 17  1  0  0  0  0
 10 18  1  0  0  0  0
 19 20  1  0  0  0  0
 20 21  4  0  0  0  0
 20 25  4  0  0  0  0
 21 22  4  0  0  0  0
 21 27  1  0  0  0  0
 22 23  4  0  0  0  0
 22 26  1  0  0  0  0
 23 24  4  0  0  0  0
 23 28  1  0  0  0  0
 24 25  4  0  0  0  0
 24 29  1  0  0  0  0
 25 30  1  0  0  0  0
 26 31  1  0  0  0  0
 26 32  1  0  0  0  0
M  END
> <BCLConfClusterSize>
1

> <ConfClashScore>
0 

> <ConfOneFourInteractionScore>
-0.962775 

> <ConfScore>
-0.00418473 

> <ConfScorePBest>
0.00450159 

> <ConfTolerance>
0.405177 

> <RosettaParamsInstructions>
M  ROOT 3
M  POLY_N_BB 3
M  POLY_CA_BB 4
M  POLY_C_BB 2
M  POLY_O_BB 5
M  POLY_IGNORE 9 10 11 12 13 14 15 16 17 18 
M  POLY_UPPER 6
M  POLY_LOWER 8
M  POLY_CHG 0
M  POLY_PROPERTIES ALPHA_AA L_AA PROTEIN AROMATIC POLYMER 
M  END

$$$$



 32 32  0  0  0  0  0  0  0  0999 V2000
   -2.0585    1.3662   -0.1582 H   0  0  0  1  0  0  0  0  0  0  0  0
   -0.7368    2.7426   -1.0649 C   0  0  0  1  0  0  0  0  0  0  0  0
   -0.1466    0.8344    0.4237 N   0  0  0  1  0  0  0  0  0  0  0  0
   -1.1406    1.8517    0.1002 C   0  0  0  1  0  0  0  0  0  0  0  0
    0.2360    3.4731   -0.9732 O   0  0  0  1  0  0  0  0  0  0  0  0
   -1.5434    2.7494   -2.1380 N   0  0  0  1  0  0  0  0  0  0  0  0
    0.6631    1.1011    0.9070 H   0  0  0  1  0  0  0  0  0  0  0  0
   -0.3017   -0.4484    0.0839 C   0  0  0  1  0  0  0  0  0  0  0  0
   -1.2467    3.4123   -3.3991 C   0  0  0  1  0  0  0  0  0  0  0  0
    0.7879   -1.3875    0.5497 C   0  0  0  1  0  0  0  0  0  0  0  0
   -1.2627   -0.8578   -0.5659 O   0  0  0  1  0  0  0  0  0  0  0  0
   -2.3962    2.2720   -2.0667 H   0  0  0  1  0  0  0  0  0  0  0  0
   -2.1593    3.6144   -3.9198 H   0  0  0  1  0  0  0  0  0  0  0  0
   -0.6275    2.7778   -3.9982 H   0  0  0  1  0  0  0  0  0  0  0  0
   -0.7350    4.3320   -3.2065 H   0  0  0  1  0  0  0  0  0  0  0  0
    0.8063   -1.4106    1.6193 H   0  0  0  1  0  0  0  0  0  0  0  0
    1.7335   -1.0455    0.1842 H   0  0  0  1  0  0  0  0  0  0  0  0
    0.5947   -2.3711    0.1753 H   0  0  0  1  0  0  0  0  0  0  0  0
   -1.6228    7.5417    0.7261 F   0  0  0  1  0  0  0  0  0  0  0  0
   -2.2608    6.3603    0.8314 C   0  0  0  1  0  0  0  0  0  0  0  0
   -1.5345    5.1943    1.0172 C   0  0  0  1  0  0  0  0  0  0  0  0
   -2.1888    3.9813    1.1199 C   0  0  0  1  0  0  0  0  0  0  0  0
   -3.5719    3.9313    1.0424 C   0  0  0  1  0  0  0  0  0  0  0  0
   -4.2963    5.0937    0.8570 C   0  0  0  1  0  0  0  0  0  0  0  0
   -3.6399    6.3103    0.7541 C   0  0  0  1  0  0  0  0  0  0  0  0
   -1.3975    2.7098    1.3166 C   0  0  0  1  0  0  0  0  0  0  0  0
   -0.4971    5.2324    1.0794 H   0  0  0  1  0  0  0  0  0  0  0  0
   -4.0646    3.0190    1.1236 H   0  0  0  1  0  0  0  0  0  0  0  0
   -5.3338    5.0556    0.7949 H   0  0  0  1  0  0  0  0  0  0  0  0
   -4.1852    7.1855    0.6187 H   0  0  0  1  0  0  0  0  0  0  0  0
   -0.4459    2.9843    1.7215 H   0  0  0  1  0  0  0  0  0  0  0  0
   -1.9277    2.1092    2.0259 H   0  0  0  1  0  0  0  0  0  0  0  0
  1  4  1  0  0  0  0
  2  4  1  0  0  0  0
  2  5  2  0  0  0  0
  2  6  1  0  0  0  0
  3  4  1  0  0  0  0
  3  7  1  0  0  0  0
  3  8  1  0  0  0  0
  4 26  1  0  0  0  0
  6  9  1  0  0  0  0
  6 12  1  0  0  0  0
  8 10  1  0  0  0  0
  8 11  2  0  0  0  0
  9 13  1  0  0  0  0
  9 14  1  0  0  0  0
  9 15  1  0  0  0  0
 10 16  1  0  0  0  0
 10 17  1  0  0  0  0
 10 18  1  0  0  0  0
 19 20  1  0  0  0  0
 20 21  4  0  0  0  0
 20 25  4  0  0  0  0
 21 22  4  0  0  0  0
 21 27  1  0  0  0  0
 22 23  4  0  0  0  0
 22 26  1  0  0  0  0
 23 24  4  0  0  0  0
 23 28  1  0  0  0  0
 24 25  4  0  0  0  0
 24 29  1  0  0  0  0
 25 30  1  0  0  0  0
 26 31  1  0  0  0  0
 26 32  1  0  0  0  0
M  END
> <BCLConfClusterSize>
1

> <ConfClashScore>
0 

> <ConfOneFourInteractionScore>
-0.96821 

> <ConfScore>
-0.00112509 

> <ConfScorePBest>
0.00447311 

> <ConfTolerance>
0.361114 

> <RosettaParamsInstructions>
M  ROOT 3
M  POLY_N_BB 3
M  POLY_CA_BB 4
M  POLY_C_BB 2
M  POLY_O_BB 5
M  POLY_IGNORE 9 10 11 12 13 14 15 16 17 18 
M  POLY_UPPER 6
M  POLY_LOWER 8
M  POLY_CHG 0
M  POLY_PROPERTIES ALPHA_AA L_AA PROTEIN AROMATIC POLYMER 
M  END

$$$$



 32 32  0  0  0  0  0  0  0  0999 V2000
   -1.7059    1.8481   -0.5769 H   0  0  0  1  0  0  0  0  0  0  0  0
   -0.0715    3.1609   -0.8094 C   0  0  0  1  0  0  0  0  0  0  0  0
   -0.0782    0.9568    0.3282 N   0  0  0  1  0  0  0  0  0  0  0  0
   -0.8528    2.1423   -0.0019 C   0  0  0  1  0  0  0  0  0  0  0  0
    0.7874    3.8559   -0.2680 O   0  0  0  1  0  0  0  0  0  0  0  0
   -0.4230    3.3230   -2.0899 N   0  0  0  1  0  0  0  0  0  0  0  0
    0.1674    0.7975    1.2634 H   0  0  0  1  0  0  0  0  0  0  0  0
    0.3142    0.0684   -0.6084 C   0  0  0  1  0  0  0  0  0  0  0  0
    0.2097    4.3220   -2.9546 C   0  0  0  1  0  0  0  0  0  0  0  0
    1.1377   -1.1183   -0.1618 C   0  0  0  1  0  0  0  0  0  0  0  0
    0.0122    0.2174   -1.7917 O   0  0  0  1  0  0  0  0  0  0  0  0
   -1.1284    2.7537   -2.4624 H   0  0  0  1  0  0  0  0  0  0  0  0
    1.2259    4.4644   -2.6515 H   0  0  0  1  0  0  0  0  0  0  0  0
   -0.3193    5.2487   -2.8749 H   0  0  0  1  0  0  0  0  0  0  0  0
    0.1845    3.9824   -3.9690 H   0  0  0  1  0  0  0  0  0  0  0  0
    2.1758   -0.9121   -0.3188 H   0  0  0  1  0  0  0  0  0  0  0  0
    0.8560   -1.9811   -0.7284 H   0  0  0  1  0  0  0  0  0  0  0  0
    0.9641   -1.3015    0.8781 H   0  0  0  1  0  0  0  0  0  0  0  0
   -1.5886    7.5181    0.7310 F   0  0  0  1  0  0  0  0  0  0  0  0
   -2.2671    6.3589    0.8311 C   0  0  0  1  0  0  0  0  0  0  0  0
   -1.5418    5.1924    1.0170 C   0  0  0  1  0  0  0  0  0  0  0  0
   -2.1972    3.9799    1.1195 C   0  0  0  1  0  0  0  0  0  0  0  0
   -3.5803    3.9310    1.0419 C   0  0  0  1  0  0  0  0  0  0  0  0
   -4.3037    5.0941    0.8565 C   0  0  0  1  0  0  0  0  0  0  0  0
   -3.6462    6.3101    0.7537 C   0  0  0  1  0  0  0  0  0  0  0  0
   -1.3583    2.7392    1.3155 C   0  0  0  1  0  0  0  0  0  0  0  0
   -0.5044    5.2295    1.0793 H   0  0  0  1  0  0  0  0  0  0  0  0
   -4.0737    3.0192    1.1230 H   0  0  0  1  0  0  0  0  0  0  0  0
   -5.3412    5.0569    0.7942 H   0  0  0  1  0  0  0  0  0  0  0  0
   -4.1907    7.1858    0.6183 H   0  0  0  1  0  0  0  0  0  0  0  0
   -0.5132    2.9916    1.9214 H   0  0  0  1  0  0  0  0  0  0  0  0
   -1.9508    2.0033    1.8177 H   0  0  0  1  0  0  0  0  0  0  0  0
  1  4  1  0  0  0  0
  2  4  1  0  0  0  0
  2  5  2  0  0  0  0
  2  6  1  0  0  0  0
  3  4  1  0  0  0  0
  3  7  1  0  0  0  0
  3  8  1  0  0  0  0
  4 26  1  0  0  0  0
  6  9  1  0  0  0  0
  6 12  1  0  0  0  0
  8 10  1  0  0  0  0
  8 11  2  0  0  0  0
  9 13  1  0  0  0  0
  9 14  1  0  0  0  0
  9 15  1  0  0  0  0
 10 16  1  0  0  0  0
 10 17  1  0  0  0  0
 10 18  1  0  0  0  0
 19 20  1  0  0  0  0
 20 21  4  0  0  0  0
 20 25  4  0  0  0  0
 21 22  4  0  0  0  0
 21 27  1  0  0  0  0
 22 23  4  0  0  0  0
 22 26  1  0  0  0  0
 23 24  4  0  0  0  0
 23 28  1  0  0  0  0
 24 25  4  0  0  0  0
 24 29  1  0  0  0  0
 25 30  1  0  0  0  0
 26 31  1  0  0  0  0
 26 32  1  0  0  0  0
M  END
> <BCLConfClusterSize>
1

> <ConfClashScore>
0 

> <ConfOneFourInteractionScore>
-0.979134 

> <ConfScore>
6.80021e-06 

> <ConfScorePBest>
0.00444463 

> <ConfTolerance>
0.44612 

> <RosettaParamsInstructions>
M  ROOT 3
M  POLY_N_BB 3
M  POLY_CA_BB 4
M  POLY_C_BB 2
M  POLY_O_BB 5
M  POLY_IGNORE 9 10 11 12 13 14 15 16 17 18 
M  POLY_UPPER 6
M  POLY_LOWER 8
M  POLY_CHG 0
M  POLY_PROPERTIES ALPHA_AA L_AA PROTEIN AROMATIC POLYMER 
M  END

$$$$



 32 32  0  0  0  0  0  0  0  0999 V2000
   -1.0529    0.8123    0.4481 H   0  0  0  1  0  0  0  0  0  0  0  0
   -3.0899    1.2323    0.1082 C   0  0  0  1  0  0  0  0  0  0  0  0
   -1.2094    2.1814   -1.0835 N   0  0  0  1  0  0  0  0  0  0  0  0
   -1.6385    1.6761    0.2120 C   0  0  0  1  0  0  0  0  0  0  0  0
   -3.5847    0.3528    0.7938 O   0  0  0  1  0  0  0  0  0  0  0  0
   -3.8322    1.8702   -0.8012 N   0  0  0  1  0  0  0  0  0  0  0  0
   -1.0039    3.1353   -1.1747 H   0  0  0  1  0  0  0  0  0  0  0  0
   -1.0846    1.3823   -2.1634 C   0  0  0  1  0  0  0  0  0  0  0  0
   -5.2243    1.5259   -1.0486 C   0  0  0  1  0  0  0  0  0  0  0  0
   -0.4660    1.9673   -3.4129 C   0  0  0  1  0  0  0  0  0  0  0  0
   -1.4623    0.2118   -2.1349 O   0  0  0  1  0  0  0  0  0  0  0  0
   -3.4250    2.5953   -1.3198 H   0  0  0  1  0  0  0  0  0  0  0  0
   -5.6445    1.0838   -0.1695 H   0  0  0  1  0  0  0  0  0  0  0  0
   -5.2807    0.8299   -1.8594 H   0  0  0  1  0  0  0  0  0  0  0  0
   -5.7713    2.4108   -1.2989 H   0  0  0  1  0  0  0  0  0  0  0  0
   -0.4137    1.2146   -4.1716 H   0  0  0  1  0  0  0  0  0  0  0  0
    0.5199    2.3191   -3.1913 H   0  0  0  1  0  0  0  0  0  0  0  0
   -1.0664    2.7821   -3.7600 H   0  0  0  1  0  0  0  0  0  0  0  0
   -1.6228    7.5417    0.7261 F   0  0  0  1  0  0  0  0  0  0  0  0
   -2.2608    6.3603    0.8314 C   0  0  0  1  0  0  0  0  0  0  0  0
   -1.5345    5.1943    1.0172 C   0  0  0  1  0  0  0  0  0  0  0  0
   -2.1888    3.9813    1.1199 C   0  0  0  1  0  0  0  0  0  0  0  0
   -3.5719    3.9313    1.0424 C   0  0  0  1  0  0  0  0  0  0  0  0
   -4.2963    5.0937    0.8570 C   0  0  0  1  0  0  0  0  0  0  0  0
   -3.6399    6.3103    0.7541 C   0  0  0  1  0  0  0  0  0  0  0  0
   -1.3975    2.7098    1.3166 C   0  0  0  1  0  0  0  0  0  0  0  0
   -0.4971    5.2324    1.0794 H   0  0  0  1  0  0  0  0  0  0  0  0
   -4.0646    3.0190    1.1236 H   0  0  0  1  0  0  0  0  0  0  0  0
   -5.3338    5.0556    0.7949 H   0  0  0  1  0  0  0  0  0  0  0  0
   -4.1852    7.1855    0.6187 H   0  0  0  1  0  0  0  0  0  0  0  0
   -0.3563    2.9556    1.3317 H   0  0  0  1  0  0  0  0  0  0  0  0
   -1.6760    2.2770    2.2547 H   0  0  0  1  0  0  0  0  0  0  0  0
  1  4  1  0  0  0  0
  2  4  1  0  0  0  0
  2  5  2  0  0  0  0
  2  6  1  0  0  0  0
  3  4  1  0  0  0  0
  3  7  1  0  0  0  0
  3  8  1  0  0  0  0
  4 26  1  0  0  0  0
  6  9  1  0  0  0  0
  6 12  1  0  0  0  0
  8 10  1  0  0  0  0
  8 11  2  0  0  0  0
  9 13  1  0  0  0  0
  9 14  1  0  0  0  0
  9 15  1  0  0  0  0
 10 16  1  0  0  0  0
 10 17  1  0  0  0  0
 10 18  1  0  0  0  0
 19 20  1  0  0  0  0
 20 21  4  0  0  0  0
 20 25  4  0  0  0  0
 21 22  4  0  0  0  0
 21 27  1  0  0  0  0
 22 23  4  0  0  0  0
 22 26  1  0  0  0  0
 23 24  4  0  0  0  0
 23 28  1  0  0  0  0
 24 25  4  0  0  0  0
 24 29  1  0  0  0  0
 25 30  1  0  0  0  0
 26 31  1  0  0  0  0
 26 32  1  0  0  0  0
M  END
> <BCLConfClusterSize>
1

> <ConfClashScore>
0 

> <ConfOneFourInteractionScore>
-0.931937 

> <ConfScore>
0.0015274 

> <ConfScorePBest>
0.00441614 

> <ConfTolerance>
0.52719 

> <RosettaParamsInstructions>
M  ROOT 3
M  POLY_N_BB 3
M  POLY_CA_BB 4
M  POLY_C_BB 2
M  POLY_O_BB 5
M  POLY_IGNORE 9 10 11 12 13 14 15 16 17 18 
M  POLY_UPPER 6
M  POLY_LOWER 8
M  POLY_CHG 0
M  POLY_PROPERTIES ALPHA_AA L_AA PROTEIN AROMATIC POLYMER 
M  END

$$$$



 32 32  0  0  0  0  0  0  0  0999 V2000
   -2.6841    1.7433    2.6297 H   0  0  0  1  0  0  0  0  0  0  0  0
   -0.8857    0.6503    2.6171 C   0  0  0  1  0  0  0  0  0  0  0  0
   -1.3058    2.8450    3.6921 N   0  0  0  1  0  0  0  0  0  0  0  0
   -1.6401    1.9707    2.5735 C   0  0  0  1  0  0  0  0  0  0  0  0
   -0.8843   -0.1163    1.6548 O   0  0  0  1  0  0  0  0  0  0  0  0
   -0.2342    0.3883    3.7612 N   0  0  0  1  0  0  0  0  0  0  0  0
   -0.3623    3.0257    3.8857 H   0  0  0  1  0  0  0  0  0  0  0  0
   -2.2413    3.4081    4.4621 C   0  0  0  1  0  0  0  0  0  0  0  0
    0.5312   -0.8337    3.9577 C   0  0  0  1  0  0  0  0  0  0  0  0
   -1.7324    4.3387    5.5396 C   0  0  0  1  0  0  0  0  0  0  0  0
   -3.4445    3.1950    4.3185 O   0  0  0  1  0  0  0  0  0  0  0  0
   -0.2753    1.0428    4.4894 H   0  0  0  1  0  0  0  0  0  0  0  0
    0.9575   -1.1419    3.0259 H   0  0  0  1  0  0  0  0  0  0  0  0
   -0.1145   -1.6033    4.3260 H   0  0  0  1  0  0  0  0  0  0  0  0
    1.3133   -0.6546    4.6656 H   0  0  0  1  0  0  0  0  0  0  0  0
   -1.1718    3.7793    6.2591 H   0  0  0  1  0  0  0  0  0  0  0  0
   -2.5616    4.8114    6.0231 H   0  0  0  1  0  0  0  0  0  0  0  0
   -1.1035    5.0839    5.0990 H   0  0  0  1  0  0  0  0  0  0  0  0
   -1.6538    7.5576    0.7160 F   0  0  0  1  0  0  0  0  0  0  0  0
   -2.2544    6.3578    0.8330 C   0  0  0  1  0  0  0  0  0  0  0  0
   -1.5312    5.1923    1.0335 C   0  0  0  1  0  0  0  0  0  0  0  0
   -2.1882    3.9813    1.1427 C   0  0  0  1  0  0  0  0  0  0  0  0
   -3.5709    3.9329    1.0571 C   0  0  0  1  0  0  0  0  0  0  0  0
   -4.2922    5.0948    0.8572 C   0  0  0  1  0  0  0  0  0  0  0  0
   -3.6331    6.3094    0.7477 C   0  0  0  1  0  0  0  0  0  0  0  0
   -1.4043    2.6954    1.2584 C   0  0  0  1  0  0  0  0  0  0  0  0
   -0.4941    5.2292    1.1017 H   0  0  0  1  0  0  0  0  0  0  0  0
   -4.0656    3.0222    1.1433 H   0  0  0  1  0  0  0  0  0  0  0  0
   -5.3293    5.0579    0.7890 H   0  0  0  1  0  0  0  0  0  0  0  0
   -4.1760    7.1843    0.6013 H   0  0  0  1  0  0  0  0  0  0  0  0
   -1.6917    2.0480    0.4565 H   0  0  0  1  0  0  0  0  0  0  0  0
   -0.3620    2.9235    1.1774 H   0  0  0  1  0  0  0  0  0  0  0  0
  1  4  1  0  0  0  0
  2  4  1  0  0  0  0
  2  5  2  0  0  0  0
  2  6  1  0  0  0  0
  3  4  1  0  0  0  0
  3  7  1  0  0  0  0
  3  8  1  0  0  0  0
  4 26  1  0  0  0  0
  6  9  1  0  0  0  0
  6 12  1  0  0  0  0
  8 10  1  0  0  0  0
  8 11  2  0  0  0  0
  9 13  1  0  0  0  0
  9 14  1  0  0  0  0
  9 15  1  0  0  0  0
 10 16  1  0  0  0  0
 10 17  1  0  0  0  0
 10 18  1  0  0  0  0
 19 20  1  0  0  0  0
 20 21  4  0  0  0  0
 20 25  4  0  0  0  0
 21 22  4  0  0  0  0
 21 27  1  0  0  0  0
 22 23  4  0  0  0  0
 22 26  1  0  0  0  0
 23 24  4  0  0  0  0
 23 28  1  0  0  0  0
 24 25  4  0  0  0  0
 24 29  1  0  0  0  0
 25 30  1  0  0  0  0
 26 31  1  0  0  0  0
 26 32  1  0  0  0  0
M  END
> <BCLConfClusterSize>
1

> <ConfClashScore>
0 

> <ConfOneFourInteractionScore>
-0.946346 

> <ConfScore>
0.00303798 

> <ConfScorePBest>
0.00438766 

> <ConfTolerance>
0.335076 

> <RosettaParamsInstructions>
M  ROOT 3
M  POLY_N_BB 3
M  POLY_CA_BB 4
M  POLY_C_BB 2
M  POLY_O_BB 5
M  POLY_IGNORE 9 10 11 12 13 14 15 16 17 18 
M  POLY_UPPER 6
M  POLY_LOWER 8
M  POLY_CHG 0
M  POLY_PROPERTIES ALPHA_AA L_AA PROTEIN AROMATIC POLYMER 
M  END

$$$$



 32 32  0  0  0  0  0  0  0  0999 V2000
    0.2724    3.5904    2.2483 H   0  0  0  1  0  0  0  0  0  0  0  0
   -1.0204    3.0969    3.8322 C   0  0  0  1  0  0  0  0  0  0  0  0
    0.3906    1.5459    2.5451 N   0  0  0  1  0  0  0  0  0  0  0  0
   -0.4008    2.7901    2.4748 C   0  0  0  1  0  0  0  0  0  0  0  0
   -1.8744    2.3612    4.3251 O   0  0  0  1  0  0  0  0  0  0  0  0
   -0.5765    4.2028    4.4362 N   0  0  0  1  0  0  0  0  0  0  0  0
   -0.0840    0.7193    2.7731 H   0  0  0  1  0  0  0  0  0  0  0  0
    1.7051    1.4618    2.3214 C   0  0  0  1  0  0  0  0  0  0  0  0
   -1.0927    4.6466    5.7225 C   0  0  0  1  0  0  0  0  0  0  0  0
    2.3302    0.1031    2.5711 C   0  0  0  1  0  0  0  0  0  0  0  0
    2.3804    2.4133    1.9378 O   0  0  0  1  0  0  0  0  0  0  0  0
    0.1211    4.7336    3.9979 H   0  0  0  1  0  0  0  0  0  0  0  0
   -2.1301    4.8904    5.6261 H   0  0  0  1  0  0  0  0  0  0  0  0
   -0.5517    5.5119    6.0443 H   0  0  0  1  0  0  0  0  0  0  0  0
   -0.9759    3.8640    6.4427 H   0  0  0  1  0  0  0  0  0  0  0  0
    2.2802   -0.1267    3.6149 H   0  0  0  1  0  0  0  0  0  0  0  0
    3.3533    0.1185    2.2581 H   0  0  0  1  0  0  0  0  0  0  0  0
    1.7983   -0.6414    2.0163 H   0  0  0  1  0  0  0  0  0  0  0  0
   -1.6537    7.5575    0.7223 F   0  0  0  1  0  0  0  0  0  0  0  0
   -2.2545    6.3571    0.8321 C   0  0  0  1  0  0  0  0  0  0  0  0
   -1.5311    5.1894    1.0180 C   0  0  0  1  0  0  0  0  0  0  0  0
   -2.1883    3.9779    1.1203 C   0  0  0  1  0  0  0  0  0  0  0  0
   -3.5715    3.9312    1.0424 C   0  0  0  1  0  0  0  0  0  0  0  0
   -4.2931    5.0954    0.8571 C   0  0  0  1  0  0  0  0  0  0  0  0
   -3.6337    6.3104    0.7545 C   0  0  0  1  0  0  0  0  0  0  0  0
   -1.4001    2.7045    1.3170 C   0  0  0  1  0  0  0  0  0  0  0  0
   -0.4935    5.2249    1.0805 H   0  0  0  1  0  0  0  0  0  0  0  0
   -4.0664    3.0201    1.1234 H   0  0  0  1  0  0  0  0  0  0  0  0
   -5.3306    5.0598    0.7946 H   0  0  0  1  0  0  0  0  0  0  0  0
   -4.1768    7.1869    0.6190 H   0  0  0  1  0  0  0  0  0  0  0  0
   -2.0853    1.9073    1.5168 H   0  0  0  1  0  0  0  0  0  0  0  0
   -0.8612    2.4950    0.4167 H   0  0  0  1  0  0  0  0  0  0  0  0
  1  4  1  0  0  0  0
  2  4  1  0  0  0  0
  2  5  2  0  0  0  0
  2  6  1  0  0  0  0
  3  4  1  0  0  0  0
  3  7  1  0  0  0  0
  3  8  1  0  0  0  0
  4 26  1  0  0  0  0
  6  9  1  0  0  0  0
  6 12  1  0  0  0  0
  8 10  1  0  0  0  0
  8 11  2  0  0  0  0
  9 13  1  0  0  0  0
  9 14  1  0  0  0  0
  9 15  1  0  0  0  0
 10 16  1  0  0  0  0
 10 17  1  0  0  0  0
 10 18  1  0  0  0  0
 19 20  1  0  0  0  0
 20 21  4  0  0  0  0
 20 25  4  0  0  0  0
 21 22  4  0  0  0  0
 21 27  1  0  0  0  0
 22 23  4  0  0  0  0
 22 26  1  0  0  0  0
 23 24  4  0  0  0  0
 23 28  1  0  0  0  0
 24 25  4  0  0  0  0
 24 29  1  0  0  0  0
 25 30  1  0  0  0  0
 26 31  1  0  0  0  0
 26 32  1  0  0  0  0
M  END
> <BCLConfClusterSize>
1

> <ConfClashScore>
0 

> <ConfOneFourInteractionScore>
-0.990503 

> <ConfScore>
0.0040295 

> <ConfScorePBest>
0.00435918 

> <ConfTolerance>
0.386135 

> <RosettaParamsInstructions>
M  ROOT 3
M  POLY_N_BB 3
M  POLY_CA_BB 4
M  POLY_C_BB 2
M  POLY_O_BB 5
M  POLY_IGNORE 9 10 11 12 13 14 15 16 17 18 
M  POLY_UPPER 6
M  POLY_LOWER 8
M  POLY_CHG 0
M  POLY_PROPERTIES ALPHA_AA L_AA PROTEIN AROMATIC POLYMER 
M  END

$$$$



 32 32  0  0  0  0  0  0  0  0999 V2000
   -0.5088    2.9697   -0.5818 H   0  0  0  1  0  0  0  0  0  0  0  0
    0.5560    1.4363    0.4135 C   0  0  0  1  0  0  0  0  0  0  0  0
   -1.6426    1.2411   -0.6303 N   0  0  0  1  0  0  0  0  0  0  0  0
   -0.7428    2.1497    0.0645 C   0  0  0  1  0  0  0  0  0  0  0  0
    1.6180    2.0355    0.3725 O   0  0  0  1  0  0  0  0  0  0  0  0
    0.4812    0.1211    0.6720 N   0  0  0  1  0  0  0  0  0  0  0  0
   -2.4334    0.9059   -0.1584 H   0  0  0  1  0  0  0  0  0  0  0  0
   -1.4199    0.8332   -1.9367 C   0  0  0  1  0  0  0  0  0  0  0  0
    1.6269   -0.6461    1.1374 C   0  0  0  1  0  0  0  0  0  0  0  0
   -2.4081   -0.0904   -2.5920 C   0  0  0  1  0  0  0  0  0  0  0  0
   -0.4274    1.2386   -2.5115 O   0  0  0  1  0  0  0  0  0  0  0  0
   -0.3747   -0.3383    0.5429 H   0  0  0  1  0  0  0  0  0  0  0  0
    1.9868   -0.2296    2.0550 H   0  0  0  1  0  0  0  0  0  0  0  0
    2.4027   -0.6102    0.4013 H   0  0  0  1  0  0  0  0  0  0  0  0
    1.3337   -1.6625    1.2981 H   0  0  0  1  0  0  0  0  0  0  0  0
   -2.8362   -0.7367   -1.8546 H   0  0  0  1  0  0  0  0  0  0  0  0
   -1.9090   -0.6777   -3.3342 H   0  0  0  1  0  0  0  0  0  0  0  0
   -3.1825    0.4858   -3.0537 H   0  0  0  1  0  0  0  0  0  0  0  0
   -1.6228    7.5417    0.7261 F   0  0  0  1  0  0  0  0  0  0  0  0
   -2.2608    6.3603    0.8314 C   0  0  0  1  0  0  0  0  0  0  0  0
   -1.5345    5.1943    1.0172 C   0  0  0  1  0  0  0  0  0  0  0  0
   -2.1888    3.9813    1.1199 C   0  0  0  1  0  0  0  0  0  0  0  0
   -3.5719    3.9313    1.0424 C   0  0  0  1  0  0  0  0  0  0  0  0
   -4.2963    5.0937    0.8570 C   0  0  0  1  0  0  0  0  0  0  0  0
   -3.6399    6.3103    0.7541 C   0  0  0  1  0  0  0  0  0  0  0  0
   -1.3975    2.7098    1.3166 C   0  0  0  1  0  0  0  0  0  0  0  0
   -0.4971    5.2324    1.0794 H   0  0  0  1  0  0  0  0  0  0  0  0
   -4.0646    3.0190    1.1236 H   0  0  0  1  0  0  0  0  0  0  0  0
   -5.3338    5.0556    0.7949 H   0  0  0  1  0  0  0  0  0  0  0  0
   -4.1852    7.1855    0.6187 H   0  0  0  1  0  0  0  0  0  0  0  0
   -0.6267    2.9081    2.0317 H   0  0  0  1  0  0  0  0  0  0  0  0
   -2.0608    1.9648    1.7037 H   0  0  0  1  0  0  0  0  0  0  0  0
  1  4  1  0  0  0  0
  2  4  1  0  0  0  0
  2  5  2  0  0  0  0
  2  6  1  0  0  0  0
  3  4  1  0  0  0  0
  3  7  1  0  0  0  0
  3  8  1  0  0  0  0
  4 26  1  0  0  0  0
  6  9  1  0  0  0  0
  6 12  1  0  0  0  0
  8 10  1  0  0  0  0
  8 11  2  0  0  0  0
  9 13  1  0  0  0  0
  9 14  1  0  0  0  0
  9 15  1  0  0  0  0
 10 16  1  0  0  0  0
 10 17  1  0  0  0  0
 10 18  1  0  0  0  0
 19 20  1  0  0  0  0
 20 21  4  0  0  0  0
 20 25  4  0  0  0  0
 21 22  4  0  0  0  0
 21 27  1  0  0  0  0
 22 23  4  0  0  0  0
 22 26  1  0  0  0  0
 23 24  4  0  0  0  0
 23 28  1  0  0  0  0
 24 25  4  0  0  0  0
 24 29  1  0  0  0  0
 25 30  1  0  0  0  0
 26 31  1  0  0  0  0
 26 32  1  0  0  0  0
M  END
> <BCLConfClusterSize>
1

> <ConfClashScore>
0 

> <ConfOneFourInteractionScore>
-0.940901 

> <ConfScore>
0.00444709 

> <ConfScorePBest>
0.0043307 

> <ConfTolerance>
0.687111 

> <RosettaParamsInstructions>
M  ROOT 3
M  POLY_N_BB 3
M  POLY_CA_BB 4
M  POLY_C_BB 2
M  POLY_O_BB 5
M  POLY_IGNORE 9 10 11 12 13 14 15 16 17 18 
M  POLY_UPPER 6
M  POLY_LOWER 8
M  POLY_CHG 0
M  POLY_PROPERTIES ALPHA_AA L_AA PROTEIN AROMATIC POLYMER 
M  END

$$$$



 32 32  0  0  0  0  0  0  0  0999 V2000
    0.5214    3.5935    1.3522 H   0  0  0  1  0  0  0  0  0  0  0  0
    0.7880    1.5174    1.0807 C   0  0  0  1  0  0  0  0  0  0  0  0
    0.0674    3.1193   -0.6080 N   0  0  0  1  0  0  0  0  0  0  0  0
    0.0364    2.8068    0.8130 C   0  0  0  1  0  0  0  0  0  0  0  0
    0.3325    0.4288    0.7326 O   0  0  0  1  0  0  0  0  0  0  0  0
    1.9646    1.6488    1.7135 N   0  0  0  1  0  0  0  0  0  0  0  0
   -0.4317    2.5484   -1.2288 H   0  0  0  1  0  0  0  0  0  0  0  0
    0.7526    4.1574   -1.0957 C   0  0  0  1  0  0  0  0  0  0  0  0
    2.8680    0.5524    2.0289 C   0  0  0  1  0  0  0  0  0  0  0  0
    0.8149    4.2983   -2.6169 C   0  0  0  1  0  0  0  0  0  0  0  0
    1.3820    4.9278   -0.3755 O   0  0  0  1  0  0  0  0  0  0  0  0
    2.2355    2.5511    1.9835 H   0  0  0  1  0  0  0  0  0  0  0  0
    2.3294   -0.2188    2.5388 H   0  0  0  1  0  0  0  0  0  0  0  0
    3.6575    0.9103    2.6561 H   0  0  0  1  0  0  0  0  0  0  0  0
    3.2814    0.1595    1.1235 H   0  0  0  1  0  0  0  0  0  0  0  0
    1.1473    3.3769   -3.0476 H   0  0  0  1  0  0  0  0  0  0  0  0
    1.4990    5.0796   -2.8747 H   0  0  0  1  0  0  0  0  0  0  0  0
   -0.1580    4.5369   -2.9929 H   0  0  0  1  0  0  0  0  0  0  0  0
   -1.6537    7.5575    0.7223 F   0  0  0  1  0  0  0  0  0  0  0  0
   -2.2545    6.3571    0.8321 C   0  0  0  1  0  0  0  0  0  0  0  0
   -1.5311    5.1894    1.0180 C   0  0  0  1  0  0  0  0  0  0  0  0
   -2.1883    3.9779    1.1203 C   0  0  0  1  0  0  0  0  0  0  0  0
   -3.5715    3.9312    1.0424 C   0  0  0  1  0  0  0  0  0  0  0  0
   -4.2931    5.0954    0.8571 C   0  0  0  1  0  0  0  0  0  0  0  0
   -3.6337    6.3104    0.7545 C   0  0  0  1  0  0  0  0  0  0  0  0
   -1.4001    2.7045    1.3170 C   0  0  0  1  0  0  0  0  0  0  0  0
   -0.4935    5.2249    1.0805 H   0  0  0  1  0  0  0  0  0  0  0  0
   -4.0664    3.0201    1.1234 H   0  0  0  1  0  0  0  0  0  0  0  0
   -5.3306    5.0598    0.7946 H   0  0  0  1  0  0  0  0  0  0  0  0
   -4.1768    7.1869    0.6190 H   0  0  0  1  0  0  0  0  0  0  0  0
   -1.3789    2.4751    2.3619 H   0  0  0  1  0  0  0  0  0  0  0  0
   -1.8913    1.9148    0.7878 H   0  0  0  1  0  0  0  0  0  0  0  0
  1  4  1  0  0  0  0
  2  4  1  0  0  0  0
  2  5  2  0  0  0  0
  2  6  1  0  0  0  0
  3  4  1  0  0  0  0
  3  7  1  0  0  0  0
  3  8  1  0  0  0  0
  4 26  1  0  0  0  0
  6  9  1  0  0  0  0
  6 12  1  0  0  0  0
  8 10  1  0  0  0  0
  8 11  2  0  0  0  0
  9 13  1  0  0  0  0
  9 14  1  0  0  0  0
  9 15  1  0  0  0  0
 10 16  1  0  0  0  0
 10 17  1  0  0  0  0
 10 18  1  0  0  0  0
 19 20  1  0  0  0  0
 20 21  4  0  0  0  0
 20 25  4  0  0  0  0
 21 22  4  0  0  0  0
 21 27  1  0  0  0  0
 22 23  4  0  0  0  0
 22 26  1  0  0  0  0
 23 24  4  0  0  0  0
 23 28  1  0  0  0  0
 24 25  4  0  0  0  0
 24 29  1  0  0  0  0
 25 30  1  0  0  0  0
 26 31  1  0  0  0  0
 26 32  1  0  0  0  0
M  END
> <BCLConfClusterSize>
1

> <ConfClashScore>
0 

> <ConfOneFourInteractionScore>
-0.971693 

> <ConfScore>
0.00654325 

> <ConfScorePBest>
0.00430222 

> <ConfTolerance>
0.486645 

> <RosettaParamsInstructions>
M  ROOT 3
M  POLY_N_BB 3
M  POLY_CA_BB 4
M  POLY_C_BB 2
M  POLY_O_BB 5
M  POLY_IGNORE 9 10 11 12 13 14 15 16 17 18 
M  POLY_UPPER 6
M  POLY_LOWER 8
M  POLY_CHG 0
M  POLY_PROPERTIES ALPHA_AA L_AA PROTEIN AROMATIC POLYMER 
M  END

$$$$



 32 32  0  0  0  0  0  0  0  0999 V2000
   -2.5693    1.5190    0.0263 H   0  0  0  1  0  0  0  0  0  0  0  0
   -0.9303    2.2032   -1.1066 C   0  0  0  1  0  0  0  0  0  0  0  0
   -0.9340    0.4149    0.6101 N   0  0  0  1  0  0  0  0  0  0  0  0
   -1.5247    1.6783    0.1944 C   0  0  0  1  0  0  0  0  0  0  0  0
    0.2643    2.4837   -1.1954 O   0  0  0  1  0  0  0  0  0  0  0  0
   -1.7899    2.3344   -2.1294 N   0  0  0  1  0  0  0  0  0  0  0  0
    0.0285    0.3795    0.7908 H   0  0  0  1  0  0  0  0  0  0  0  0
   -1.6572   -0.6967    0.7538 C   0  0  0  1  0  0  0  0  0  0  0  0
   -1.3781    2.8376   -3.4313 C   0  0  0  1  0  0  0  0  0  0  0  0
   -0.9288   -1.8835    1.3539 C   0  0  0  1  0  0  0  0  0  0  0  0
   -2.8407   -0.7730    0.4263 O   0  0  0  1  0  0  0  0  0  0  0  0
   -2.7274    2.0827   -1.9945 H   0  0  0  1  0  0  0  0  0  0  0  0
   -0.3951    3.2538   -3.3588 H   0  0  0  1  0  0  0  0  0  0  0  0
   -2.0626    3.5941   -3.7538 H   0  0  0  1  0  0  0  0  0  0  0  0
   -1.3739    2.0347   -4.1386 H   0  0  0  1  0  0  0  0  0  0  0  0
   -0.4473   -1.5853    2.2617 H   0  0  0  1  0  0  0  0  0  0  0  0
   -0.1947   -2.2386    0.6611 H   0  0  0  1  0  0  0  0  0  0  0  0
   -1.6303   -2.6641    1.5623 H   0  0  0  1  0  0  0  0  0  0  0  0
   -1.6228    7.5417    0.7261 F   0  0  0  1  0  0  0  0  0  0  0  0
   -2.2608    6.3603    0.8314 C   0  0  0  1  0  0  0  0  0  0  0  0
   -1.5345    5.1943    1.0172 C   0  0  0  1  0  0  0  0  0  0  0  0
   -2.1888    3.9813    1.1199 C   0  0  0  1  0  0  0  0  0  0  0  0
   -3.5719    3.9313    1.0424 C   0  0  0  1  0  0  0  0  0  0  0  0
   -4.2963    5.0937    0.8570 C   0  0  0  1  0  0  0  0  0  0  0  0
   -3.6399    6.3103    0.7541 C   0  0  0  1  0  0  0  0  0  0  0  0
   -1.3975    2.7098    1.3166 C   0  0  0  1  0  0  0  0  0  0  0  0
   -0.4971    5.2324    1.0794 H   0  0  0  1  0  0  0  0  0  0  0  0
   -4.0646    3.0190    1.1236 H   0  0  0  1  0  0  0  0  0  0  0  0
   -5.3338    5.0556    0.7949 H   0  0  0  1  0  0  0  0  0  0  0  0
   -4.1852    7.1855    0.6187 H   0  0  0  1  0  0  0  0  0  0  0  0
   -0.3647    2.9744    1.4062 H   0  0  0  1  0  0  0  0  0  0  0  0
   -1.7291    2.2519    2.2250 H   0  0  0  1  0  0  0  0  0  0  0  0
  1  4  1  0  0  0  0
  2  4  1  0  0  0  0
  2  5  2  0  0  0  0
  2  6  1  0  0  0  0
  3  4  1  0  0  0  0
  3  7  1  0  0  0  0
  3  8  1  0  0  0  0
  4 26  1  0  0  0  0
  6  9  1  0  0  0  0
  6 12  1  0  0  0  0
  8 10  1  0  0  0  0
  8 11  2  0  0  0  0
  9 13  1  0  0  0  0
  9 14  1  0  0  0  0
  9 15  1  0  0  0  0
 10 16  1  0  0  0  0
 10 17  1  0  0  0  0
 10 18  1  0  0  0  0
 19 20  1  0  0  0  0
 20 21  4  0  0  0  0
 20 25  4  0  0  0  0
 21 22  4  0  0  0  0
 21 27  1  0  0  0  0
 22 23  4  0  0  0  0
 22 26  1  0  0  0  0
 23 24  4  0  0  0  0
 23 28  1  0  0  0  0
 24 25  4  0  0  0  0
 24 29  1  0  0  0  0
 25 30  1  0  0  0  0
 26 31  1  0  0  0  0
 26 32  1  0  0  0  0
M  END
> <BCLConfClusterSize>
1

> <ConfClashScore>
0 

> <ConfOneFourInteractionScore>
-0.978127 

> <ConfScore>
0.0137185 

> <ConfScorePBest>
0.00427374 

> <ConfTolerance>
0.439788 

> <RosettaParamsInstructions>
M  ROOT 3
M  POLY_N_BB 3
M  POLY_CA_BB 4
M  POLY_C_BB 2
M  POLY_O_BB 5
M  POLY_IGNORE 9 10 11 12 13 14 15 16 17 18 
M  POLY_UPPER 6
M  POLY_LOWER 8
M  POLY_CHG 0
M  POLY_PROPERTIES ALPHA_AA L_AA PROTEIN AROMATIC POLYMER 
M  END

$$$$



 32 32  0  0  0  0  0  0  0  0999 V2000
   -2.9475    1.3501    0.9469 H   0  0  0  1  0  0  0  0  0  0  0  0
   -1.3639    0.2336    1.7402 C   0  0  0  1  0  0  0  0  0  0  0  0
   -2.9197    1.6766    2.9705 N   0  0  0  1  0  0  0  0  0  0  0  0
   -2.2129    1.4896    1.7123 C   0  0  0  1  0  0  0  0  0  0  0  0
   -0.4788    0.0860    2.5667 O   0  0  0  1  0  0  0  0  0  0  0  0
   -1.6526   -0.6864    0.8062 N   0  0  0  1  0  0  0  0  0  0  0  0
   -2.3996    1.8288    3.7871 H   0  0  0  1  0  0  0  0  0  0  0  0
   -4.2530    1.6480    3.0512 C   0  0  0  1  0  0  0  0  0  0  0  0
   -0.8879   -1.9226    0.7373 C   0  0  0  1  0  0  0  0  0  0  0  0
   -4.8726    2.0405    4.3985 C   0  0  0  1  0  0  0  0  0  0  0  0
   -4.9808    1.4024    2.0902 O   0  0  0  1  0  0  0  0  0  0  0  0
   -2.3799   -0.5252    0.1694 H   0  0  0  1  0  0  0  0  0  0  0  0
   -0.6684   -2.2626    1.7278 H   0  0  0  1  0  0  0  0  0  0  0  0
    0.0264   -1.7472    0.2099 H   0  0  0  1  0  0  0  0  0  0  0  0
   -1.4595   -2.6671    0.2234 H   0  0  0  1  0  0  0  0  0  0  0  0
   -4.1766    2.6358    4.9518 H   0  0  0  1  0  0  0  0  0  0  0  0
   -5.1063    1.1566    4.9543 H   0  0  0  1  0  0  0  0  0  0  0  0
   -5.7669    2.6029    4.2292 H   0  0  0  1  0  0  0  0  0  0  0  0
   -1.6228    7.5417    0.7261 F   0  0  0  1  0  0  0  0  0  0  0  0
   -2.2608    6.3603    0.8314 C   0  0  0  1  0  0  0  0  0  0  0  0
   -1.5345    5.1943    1.0172 C   0  0  0  1  0  0  0  0  0  0  0  0
   -2.1888    3.9813    1.1199 C   0  0  0  1  0  0  0  0  0  0  0  0
   -3.5719    3.9313    1.0424 C   0  0  0  1  0  0  0  0  0  0  0  0
   -4.2963    5.0937    0.8570 C   0  0  0  1  0  0  0  0  0  0  0  0
   -3.6399    6.3103    0.7541 C   0  0  0  1  0  0  0  0  0  0  0  0
   -1.3975    2.7098    1.3166 C   0  0  0  1  0  0  0  0  0  0  0  0
   -0.4971    5.2324    1.0794 H   0  0  0  1  0  0  0  0  0  0  0  0
   -4.0646    3.0190    1.1236 H   0  0  0  1  0  0  0  0  0  0  0  0
   -5.3338    5.0556    0.7949 H   0  0  0  1  0  0  0  0  0  0  0  0
   -4.1852    7.1855    0.6187 H   0  0  0  1  0  0  0  0  0  0  0  0
   -0.8959    2.4878    0.3979 H   0  0  0  1  0  0  0  0  0  0  0  0
   -0.6741    2.8867    2.0849 H   0  0  0  1  0  0  0  0  0  0  0  0
  1  4  1  0  0  0  0
  2  4  1  0  0  0  0
  2  5  2  0  0  0  0
  2  6  1  0  0  0  0
  3  4  1  0  0  0  0
  3  7  1  0  0  0  0
  3  8  1  0  0  0  0
  4 26  1  0  0  0  0
  6  9  1  0  0  0  0
  6 12  1  0  0  0  0
  8 10  1  0  0  0  0
  8 11  2  0  0  0  0
  9 13  1  0  0  0  0
  9 14  1  0  0  0  0
  9 15  1  0  0  0  0
 10 16  1  0  0  0  0
 10 17  1  0  0  0  0
 10 18  1  0  0  0  0
 19 20  1  0  0  0  0
 20 21  4  0  0  0  0
 20 25  4  0  0  0  0
 21 22  4  0  0  0  0
 21 27  1  0  0  0  0
 22 23  4  0  0  0  0
 22 26  1  0  0  0  0
 23 24  4  0  0  0  0
 23 28  1  0  0  0  0
 24 25  4  0  0  0  0
 24 29  1  0  0  0  0
 25 30  1  0  0  0  0
 26 31  1  0  0  0  0
 26 32  1  0  0  0  0
M  END
> <BCLConfClusterSize>
1

> <ConfClashScore>
0 

> <ConfOneFourInteractionScore>
-0.983061 

> <ConfScore>
0.0139186 

> <ConfScorePBest>
0.00424526 

> <ConfTolerance>
0.468553 

> <RosettaParamsInstructions>
M  ROOT 3
M  POLY_N_BB 3
M  POLY_CA_BB 4
M  POLY_C_BB 2
M  POLY_O_BB 5
M  POLY_IGNORE 9 10 11 12 13 14 15 16 17 18 
M  POLY_UPPER 6
M  POLY_LOWER 8
M  POLY_CHG 0
M  POLY_PROPERTIES ALPHA_AA L_AA PROTEIN AROMATIC POLYMER 
M  END

$$$$



 32 32  0  0  0  0  0  0  0  0999 V2000
    0.4553    3.6071    0.9324 H   0  0  0  1  0  0  0  0  0  0  0  0
    0.2908    3.6596    3.0167 C   0  0  0  1  0  0  0  0  0  0  0  0
    0.8398    1.7001    1.6111 N   0  0  0  1  0  0  0  0  0  0  0  0
    0.0646    2.9566    1.6867 C   0  0  0  1  0  0  0  0  0  0  0  0
    0.0304    4.8534    3.1602 O   0  0  0  1  0  0  0  0  0  0  0  0
    0.7861    2.8957    4.0032 N   0  0  0  1  0  0  0  0  0  0  0  0
    0.3740    0.8702    1.3771 H   0  0  0  1  0  0  0  0  0  0  0  0
    2.1664    1.6561    1.8530 C   0  0  0  1  0  0  0  0  0  0  0  0
    0.9625    3.3948    5.3589 C   0  0  0  1  0  0  0  0  0  0  0  0
    2.8751    0.3305    1.6898 C   0  0  0  1  0  0  0  0  0  0  0  0
    2.7836    2.6634    2.1965 O   0  0  0  1  0  0  0  0  0  0  0  0
    1.0377    1.9698    3.8036 H   0  0  0  1  0  0  0  0  0  0  0  0
    1.3194    2.6051    5.9865 H   0  0  0  1  0  0  0  0  0  0  0  0
    0.0252    3.7509    5.7323 H   0  0  0  1  0  0  0  0  0  0  0  0
    1.6726    4.1951    5.3544 H   0  0  0  1  0  0  0  0  0  0  0  0
    3.8787    0.4152    2.0512 H   0  0  0  1  0  0  0  0  0  0  0  0
    2.8907    0.0598    0.6548 H   0  0  0  1  0  0  0  0  0  0  0  0
    2.3575   -0.4215    2.2479 H   0  0  0  1  0  0  0  0  0  0  0  0
   -1.6537    7.5575    0.7223 F   0  0  0  1  0  0  0  0  0  0  0  0
   -2.2545    6.3571    0.8321 C   0  0  0  1  0  0  0  0  0  0  0  0
   -1.5311    5.1894    1.0180 C   0  0  0  1  0  0  0  0  0  0  0  0
   -2.1883    3.9779    1.1203 C   0  0  0  1  0  0  0  0  0  0  0  0
   -3.5715    3.9312    1.0424 C   0  0  0  1  0  0  0  0  0  0  0  0
   -4.2931    5.0954    0.8571 C   0  0  0  1  0  0  0  0  0  0  0  0
   -3.6337    6.3104    0.7545 C   0  0  0  1  0  0  0  0  0  0  0  0
   -1.4001    2.7045    1.3170 C   0  0  0  1  0  0  0  0  0  0  0  0
   -0.4935    5.2249    1.0805 H   0  0  0  1  0  0  0  0  0  0  0  0
   -4.0664    3.0201    1.1234 H   0  0  0  1  0  0  0  0  0  0  0  0
   -5.3306    5.0598    0.7946 H   0  0  0  1  0  0  0  0  0  0  0  0
   -4.1768    7.1869    0.6190 H   0  0  0  1  0  0  0  0  0  0  0  0
   -1.8571    2.1390    2.1021 H   0  0  0  1  0  0  0  0  0  0  0  0
   -1.4298    2.1416    0.4075 H   0  0  0  1  0  0  0  0  0  0  0  0
  1  4  1  0  0  0  0
  2  4  1  0  0  0  0
  2  5  2  0  0  0  0
  2  6  1  0  0  0  0
  3  4  1  0  0  0  0
  3  7  1  0  0  0  0
  3  8  1  0  0  0  0
  4 26  1  0  0  0  0
  6  9  1  0  0  0  0
  6 12  1  0  0  0  0
  8 10  1  0  0  0  0
  8 11  2  0  0  0  0
  9 13  1  0  0  0  0
  9 14  1  0  0  0  0
  9 15  1  0  0  0  0
 10 16  1  0  0  0  0
 10 17  1  0  0  0  0
 10 18  1  0  0  0  0
 19 20  1  0  0  0  0
 20 21  4  0  0  0  0
 20 25  4  0  0  0  0
 21 22  4  0  0  0  0
 21 27  1  0  0  0  0
 22 23  4  0  0  0  0
 22 26  1  0  0  0  0
 23 24  4  0  0  0  0
 23 28  1  0  0  0  0
 24 25  4  0  0  0  0
 24 29  1  0  0  0  0
 25 30  1  0  0  0  0
 26 31  1  0  0  0  0
 26 32  1  0  0  0  0
M  END
> <BCLConfClusterSize>
1

> <ConfClashScore>
0 

> <ConfOneFourInteractionScore>
-0.952877 

> <ConfScore>
0.015092 

> <ConfScorePBest>
0.00421678 

> <ConfTolerance>
0.718042 

> <RosettaParamsInstructions>
M  ROOT 3
M  POLY_N_BB 3
M  POLY_CA_BB 4
M  POLY_C_BB 2
M  POLY_O_BB 5
M  POLY_IGNORE 9 10 11 12 13 14 15 16 17 18 
M  POLY_UPPER 6
M  POLY_LOWER 8
M  POLY_CHG 0
M  POLY_PROPERTIES ALPHA_AA L_AA PROTEIN AROMATIC POLYMER 
M  END

$$$$



 32 32  0  0  0  0  0  0  0  0999 V2000
   -0.2160    3.0801    2.9646 H   0  0  0  1  0  0  0  0  0  0  0  0
   -2.1099    2.6899    3.7378 C   0  0  0  1  0  0  0  0  0  0  0  0
   -0.4543    1.0548    2.8628 N   0  0  0  1  0  0  0  0  0  0  0  0
   -1.0083    2.3954    2.7449 C   0  0  0  1  0  0  0  0  0  0  0  0
   -3.2150    2.1578    3.6418 O   0  0  0  1  0  0  0  0  0  0  0  0
   -1.7990    3.5584    4.7131 N   0  0  0  1  0  0  0  0  0  0  0  0
   -0.9237    0.3096    2.4331 H   0  0  0  1  0  0  0  0  0  0  0  0
    0.6831    0.8023    3.5431 C   0  0  0  1  0  0  0  0  0  0  0  0
   -2.7060    3.9866    5.7676 C   0  0  0  1  0  0  0  0  0  0  0  0
    1.1802   -0.6247    3.5921 C   0  0  0  1  0  0  0  0  0  0  0  0
    1.2995    1.7047    4.1077 O   0  0  0  1  0  0  0  0  0  0  0  0
   -0.8931    3.9321    4.7152 H   0  0  0  1  0  0  0  0  0  0  0  0
   -2.4511    4.9787    6.0768 H   0  0  0  1  0  0  0  0  0  0  0  0
   -2.6229    3.3210    6.6013 H   0  0  0  1  0  0  0  0  0  0  0  0
   -3.7108    3.9749    5.4000 H   0  0  0  1  0  0  0  0  0  0  0  0
    2.1025   -0.6634    4.1332 H   0  0  0  1  0  0  0  0  0  0  0  0
    1.3362   -0.9822    2.5957 H   0  0  0  1  0  0  0  0  0  0  0  0
    0.4535   -1.2386    4.0821 H   0  0  0  1  0  0  0  0  0  0  0  0
   -1.5964    7.5319    0.7289 F   0  0  0  1  0  0  0  0  0  0  0  0
   -2.2670    6.3683    0.8300 C   0  0  0  1  0  0  0  0  0  0  0  0
   -1.5337    5.2067    1.0158 C   0  0  0  1  0  0  0  0  0  0  0  0
   -2.1808    3.9899    1.1194 C   0  0  0  1  0  0  0  0  0  0  0  0
   -3.5636    3.9317    1.0428 C   0  0  0  1  0  0  0  0  0  0  0  0
   -4.2950    5.0898    0.8576 C   0  0  0  1  0  0  0  0  0  0  0  0
   -3.6458    6.3102    0.7537 C   0  0  0  1  0  0  0  0  0  0  0  0
   -1.4352    2.6912    1.3165 C   0  0  0  1  0  0  0  0  0  0  0  0
   -0.4965    5.2509    1.0772 H   0  0  0  1  0  0  0  0  0  0  0  0
   -4.0509    3.0166    1.1248 H   0  0  0  1  0  0  0  0  0  0  0  0
   -5.3322    5.0456    0.7962 H   0  0  0  1  0  0  0  0  0  0  0  0
   -4.1963    7.1821    0.6184 H   0  0  0  1  0  0  0  0  0  0  0  0
   -2.0692    1.8937    0.9896 H   0  0  0  1  0  0  0  0  0  0  0  0
   -0.5553    2.7202    0.7083 H   0  0  0  1  0  0  0  0  0  0  0  0
  1  4  1  0  0  0  0
  2  4  1  0  0  0  0
  2  5  2  0  0  0  0
  2  6  1  0  0  0  0
  3  4  1  0  0  0  0
  3  7  1  0  0  0  0
  3  8  1  0  0  0  0
  4 26  1  0  0  0  0
  6  9  1  0  0  0  0
  6 12  1  0  0  0  0
  8 10  1  0  0  0  0
  8 11  2  0  0  0  0
  9 13  1  0  0  0  0
  9 14  1  0  0  0  0
  9 15  1  0  0  0  0
 10 16  1  0  0  0  0
 10 17  1  0  0  0  0
 10 18  1  0  0  0  0
 19 20  1  0  0  0  0
 20 21  4  0  0  0  0
 20 25  4  0  0  0  0
 21 22  4  0  0  0  0
 21 27  1  0  0  0  0
 22 23  4  0  0  0  0
 22 26  1  0  0  0  0
 23 24  4  0  0  0  0
 23 28  1  0  0  0  0
 24 25  4  0  0  0  0
 24 29  1  0  0  0  0
 25 30  1  0  0  0  0
 26 31  1  0  0  0  0
 26 32  1  0  0  0  0
M  END
> <BCLConfClusterSize>
1

> <ConfClashScore>
0 

> <ConfOneFourInteractionScore>
-0.979134 

> <ConfScore>
0.0168437 

> <ConfScorePBest>
0.0041883 

> <ConfTolerance>
0.497145 

> <RosettaParamsInstructions>
M  ROOT 3
M  POLY_N_BB 3
M  POLY_CA_BB 4
M  POLY_C_BB 2
M  POLY_O_BB 5
M  POLY_IGNORE 9 10 11 12 13 14 15 16 17 18 
M  POLY_UPPER 6
M  POLY_LOWER 8
M  POLY_CHG 0
M  POLY_PROPERTIES ALPHA_AA L_AA PROTEIN AROMATIC POLYMER 
M  END

$$$$



 32 32  0  0  0  0  0  0  0  0999 V2000
   -0.6522    2.5083   -0.6380 H   0  0  0  1  0  0  0  0  0  0  0  0
   -0.5118    0.5853    0.2094 C   0  0  0  1  0  0  0  0  0  0  0  0
   -2.5197    1.6384   -0.6335 N   0  0  0  1  0  0  0  0  0  0  0  0
   -1.2443    1.9026    0.0158 C   0  0  0  1  0  0  0  0  0  0  0  0
   -0.9342   -0.2620    0.9951 O   0  0  0  1  0  0  0  0  0  0  0  0
    0.6073    0.3751   -0.5015 N   0  0  0  1  0  0  0  0  0  0  0  0
   -3.3196    1.4746   -0.0916 H   0  0  0  1  0  0  0  0  0  0  0  0
   -2.6054    1.6179   -2.0173 C   0  0  0  1  0  0  0  0  0  0  0  0
    1.3596   -0.8678   -0.4176 C   0  0  0  1  0  0  0  0  0  0  0  0
   -3.8856    1.1677   -2.6632 C   0  0  0  1  0  0  0  0  0  0  0  0
   -1.6362    1.9668   -2.6657 O   0  0  0  1  0  0  0  0  0  0  0  0
    0.9290    1.0833   -1.0977 H   0  0  0  1  0  0  0  0  0  0  0  0
    2.3794   -0.6869   -0.6863 H   0  0  0  1  0  0  0  0  0  0  0  0
    0.9366   -1.5865   -1.0881 H   0  0  0  1  0  0  0  0  0  0  0  0
    1.3160   -1.2440    0.5831 H   0  0  0  1  0  0  0  0  0  0  0  0
   -4.6323    1.0199   -1.9113 H   0  0  0  1  0  0  0  0  0  0  0  0
   -3.7178    0.2485   -3.1845 H   0  0  0  1  0  0  0  0  0  0  0  0
   -4.2181    1.9144   -3.3538 H   0  0  0  1  0  0  0  0  0  0  0  0
   -1.6268    7.5487    0.7250 F   0  0  0  1  0  0  0  0  0  0  0  0
   -2.2607    6.3650    0.8308 C   0  0  0  1  0  0  0  0  0  0  0  0
   -1.5303    5.2017    1.0166 C   0  0  0  1  0  0  0  0  0  0  0  0
   -2.1803    3.9864    1.1198 C   0  0  0  1  0  0  0  0  0  0  0  0
   -3.5633    3.9316    1.0429 C   0  0  0  1  0  0  0  0  0  0  0  0
   -4.2918    5.0914    0.8576 C   0  0  0  1  0  0  0  0  0  0  0  0
   -3.6396    6.3102    0.7541 C   0  0  0  1  0  0  0  0  0  0  0  0
   -1.4379    2.6859    1.3169 C   0  0  0  1  0  0  0  0  0  0  0  0
   -0.4929    5.2433    1.0783 H   0  0  0  1  0  0  0  0  0  0  0  0
   -4.0527    3.0176    1.1246 H   0  0  0  1  0  0  0  0  0  0  0  0
   -5.3291    5.0497    0.7959 H   0  0  0  1  0  0  0  0  0  0  0  0
   -4.1880    7.1835    0.6187 H   0  0  0  1  0  0  0  0  0  0  0  0
   -0.4751    2.9026    1.7304 H   0  0  0  1  0  0  0  0  0  0  0  0
   -1.9918    2.0778    2.0013 H   0  0  0  1  0  0  0  0  0  0  0  0
  1  4  1  0  0  0  0
  2  4  1  0  0  0  0
  2  5  2  0  0  0  0
  2  6  1  0  0  0  0
  3  4  1  0  0  0  0
  3  7  1  0  0  0  0
  3  8  1  0  0  0  0
  4 26  1  0  0  0  0
  6  9  1  0  0  0  0
  6 12  1  0  0  0  0
  8 10  1  0  0  0  0
  8 11  2  0  0  0  0
  9 13  1  0  0  0  0
  9 14  1  0  0  0  0
  9 15  1  0  0  0  0
 10 16  1  0  0  0  0
 10 17  1  0  0  0  0
 10 18  1  0  0  0  0
 19 20  1  0  0  0  0
 20 21  4  0  0  0  0
 20 25  4  0  0  0  0
 21 22  4  0  0  0  0
 21 27  1  0  0  0  0
 22 23  4  0  0  0  0
 22 26  1  0  0  0  0
 23 24  4  0  0  0  0
 23 28  1  0  0  0  0
 24 25  4  0  0  0  0
 24 29  1  0  0  0  0
 25 30  1  0  0  0  0
 26 31  1  0  0  0  0
 26 32  1  0  0  0  0
M  END
> <BCLConfClusterSize>
1

> <ConfClashScore>
0 

> <ConfOneFourInteractionScore>
-0.985807 

> <ConfScore>
0.0178692 

> <ConfScorePBest>
0.00415982 

> <ConfTolerance>
0.380116 

> <RosettaParamsInstructions>
M  ROOT 3
M  POLY_N_BB 3
M  POLY_CA_BB 4
M  POLY_C_BB 2
M  POLY_O_BB 5
M  POLY_IGNORE 9 10 11 12 13 14 15 16 17 18 
M  POLY_UPPER 6
M  POLY_LOWER 8
M  POLY_CHG 0
M  POLY_PROPERTIES ALPHA_AA L_AA PROTEIN AROMATIC POLYMER 
M  END

$$$$



 32 32  0  0  0  0  0  0  0  0999 V2000
    0.2054    3.3900    0.1450 H   0  0  0  1  0  0  0  0  0  0  0  0
    0.6616    1.3830    0.5091 C   0  0  0  1  0  0  0  0  0  0  0  0
   -1.0082    2.2674   -1.0845 N   0  0  0  1  0  0  0  0  0  0  0  0
   -0.3509    2.4793    0.2226 C   0  0  0  1  0  0  0  0  0  0  0  0
    0.5167    0.2558    0.0655 O   0  0  0  1  0  0  0  0  0  0  0  0
    1.7023    1.7379    1.2680 N   0  0  0  1  0  0  0  0  0  0  0  0
   -1.1063    1.3524   -1.4217 H   0  0  0  1  0  0  0  0  0  0  0  0
   -1.4731    3.2797   -1.8220 C   0  0  0  1  0  0  0  0  0  0  0  0
    2.6479    0.7320    1.7281 C   0  0  0  1  0  0  0  0  0  0  0  0
   -2.0231    2.9679   -3.2003 C   0  0  0  1  0  0  0  0  0  0  0  0
   -1.4822    4.4524   -1.4500 O   0  0  0  1  0  0  0  0  0  0  0  0
    1.8292    2.6777    1.5154 H   0  0  0  1  0  0  0  0  0  0  0  0
    2.9602    0.1302    0.9004 H   0  0  0  1  0  0  0  0  0  0  0  0
    2.1789    0.1115    2.4629 H   0  0  0  1  0  0  0  0  0  0  0  0
    3.5000    1.2146    2.1594 H   0  0  0  1  0  0  0  0  0  0  0  0
   -2.8757    2.3281   -3.1083 H   0  0  0  1  0  0  0  0  0  0  0  0
   -1.2705    2.4775   -3.7817 H   0  0  0  1  0  0  0  0  0  0  0  0
   -2.3110    3.8782   -3.6834 H   0  0  0  1  0  0  0  0  0  0  0  0
   -1.6228    7.5417    0.7261 F   0  0  0  1  0  0  0  0  0  0  0  0
   -2.2608    6.3603    0.8314 C   0  0  0  1  0  0  0  0  0  0  0  0
   -1.5345    5.1943    1.0172 C   0  0  0  1  0  0  0  0  0  0  0  0
   -2.1888    3.9813    1.1199 C   0  0  0  1  0  0  0  0  0  0  0  0
   -3.5719    3.9313    1.0424 C   0  0  0  1  0  0  0  0  0  0  0  0
   -4.2963    5.0937    0.8570 C   0  0  0  1  0  0  0  0  0  0  0  0
   -3.6399    6.3103    0.7541 C   0  0  0  1  0  0  0  0  0  0  0  0
   -1.3975    2.7098    1.3166 C   0  0  0  1  0  0  0  0  0  0  0  0
   -0.4971    5.2324    1.0794 H   0  0  0  1  0  0  0  0  0  0  0  0
   -4.0646    3.0190    1.1236 H   0  0  0  1  0  0  0  0  0  0  0  0
   -5.3338    5.0556    0.7949 H   0  0  0  1  0  0  0  0  0  0  0  0
   -4.1852    7.1855    0.6187 H   0  0  0  1  0  0  0  0  0  0  0  0
   -0.8972    2.7627    2.2609 H   0  0  0  1  0  0  0  0  0  0  0  0
   -2.0765    1.8829    1.3179 H   0  0  0  1  0  0  0  0  0  0  0  0
  1  4  1  0  0  0  0
  2  4  1  0  0  0  0
  2  5  2  0  0  0  0
  2  6  1  0  0  0  0
  3  4  1  0  0  0  0
  3  7  1  0  0  0  0
  3  8  1  0  0  0  0
  4 26  1  0  0  0  0
  6  9  1  0  0  0  0
  6 12  1  0  0  0  0
  8 10  1  0  0  0  0
  8 11  2  0  0  0  0
  9 13  1  0  0  0  0
  9 14  1  0  0  0  0
  9 15  1  0  0  0  0
 10 16  1  0  0  0  0
 10 17  1  0  0  0  0
 10 18  1  0  0  0  0
 19 20  1  0  0  0  0
 20 21  4  0  0  0  0
 20 25  4  0  0  0  0
 21 22  4  0  0  0  0
 21 27  1  0  0  0  0
 22 23  4  0  0  0  0
 22 26  1  0  0  0  0
 23 24  4  0  0  0  0
 23 28  1  0  0  0  0
 24 25  4  0  0  0  0
 24 29  1  0  0  0  0
 25 30  1  0  0  0  0
 26 31  1  0  0  0  0
 26 32  1  0  0  0  0
M  END
> <BCLConfClusterSize>
1

> <ConfClashScore>
0 

> <ConfOneFourInteractionScore>
-0.990503 

> <ConfScore>
0.0254403 

> <ConfScorePBest>
0.00413134 

> <ConfTolerance>
0.668427 

> <RosettaParamsInstructions>
M  ROOT 3
M  POLY_N_BB 3
M  POLY_CA_BB 4
M  POLY_C_BB 2
M  POLY_O_BB 5
M  POLY_IGNORE 9 10 11 12 13 14 15 16 17 18 
M  POLY_UPPER 6
M  POLY_LOWER 8
M  POLY_CHG 0
M  POLY_PROPERTIES ALPHA_AA L_AA PROTEIN AROMATIC POLYMER 
M  END

$$$$



 32 32  0  0  0  0  0  0  0  0999 V2000
   -2.9592    1.2861    1.4931 H   0  0  0  1  0  0  0  0  0  0  0  0
   -1.2285    0.4687    2.4001 C   0  0  0  1  0  0  0  0  0  0  0  0
   -2.7269    2.2440    3.3086 N   0  0  0  1  0  0  0  0  0  0  0  0
   -2.1612    1.6442    2.1094 C   0  0  0  1  0  0  0  0  0  0  0  0
   -0.8240   -0.2705    1.5037 O   0  0  0  1  0  0  0  0  0  0  0  0
   -0.9121    0.3393    3.6983 N   0  0  0  1  0  0  0  0  0  0  0  0
   -2.1750    2.8593    3.8351 H   0  0  0  1  0  0  0  0  0  0  0  0
   -3.9724    1.9849    3.7168 C   0  0  0  1  0  0  0  0  0  0  0  0
   -0.0922   -0.7271    4.2537 C   0  0  0  1  0  0  0  0  0  0  0  0
   -4.4945    2.8631    4.8372 C   0  0  0  1  0  0  0  0  0  0  0  0
   -4.6664    1.0949    3.2269 O   0  0  0  1  0  0  0  0  0  0  0  0
   -1.2594    1.0137    4.3187 H   0  0  0  1  0  0  0  0  0  0  0  0
   -0.2042   -1.6100    3.6596 H   0  0  0  1  0  0  0  0  0  0  0  0
   -0.4039   -0.9306    5.2569 H   0  0  0  1  0  0  0  0  0  0  0  0
    0.9342   -0.4248    4.2529 H   0  0  0  1  0  0  0  0  0  0  0  0
   -5.4945    2.5720    5.0827 H   0  0  0  1  0  0  0  0  0  0  0  0
   -4.4882    3.8853    4.5213 H   0  0  0  1  0  0  0  0  0  0  0  0
   -3.8693    2.7515    5.6983 H   0  0  0  1  0  0  0  0  0  0  0  0
   -1.6228    7.5417    0.7261 F   0  0  0  1  0  0  0  0  0  0  0  0
   -2.2608    6.3603    0.8314 C   0  0  0  1  0  0  0  0  0  0  0  0
   -1.5345    5.1943    1.0172 C   0  0  0  1  0  0  0  0  0  0  0  0
   -2.1888    3.9813    1.1199 C   0  0  0  1  0  0  0  0  0  0  0  0
   -3.5719    3.9313    1.0424 C   0  0  0  1  0  0  0  0  0  0  0  0
   -4.2963    5.0937    0.8570 C   0  0  0  1  0  0  0  0  0  0  0  0
   -3.6399    6.3103    0.7541 C   0  0  0  1  0  0  0  0  0  0  0  0
   -1.3975    2.7098    1.3166 C   0  0  0  1  0  0  0  0  0  0  0  0
   -0.4971    5.2324    1.0794 H   0  0  0  1  0  0  0  0  0  0  0  0
   -4.0646    3.0190    1.1236 H   0  0  0  1  0  0  0  0  0  0  0  0
   -5.3338    5.0556    0.7949 H   0  0  0  1  0  0  0  0  0  0  0  0
   -4.1852    7.1855    0.6187 H   0  0  0  1  0  0  0  0  0  0  0  0
   -1.1528    2.3088    0.3552 H   0  0  0  1  0  0  0  0  0  0  0  0
   -0.4975    2.9470    1.8443 H   0  0  0  1  0  0  0  0  0  0  0  0
  1  4  1  0  0  0  0
  2  4  1  0  0  0  0
  2  5  2  0  0  0  0
  2  6  1  0  0  0  0
  3  4  1  0  0  0  0
  3  7  1  0  0  0  0
  3  8  1  0  0  0  0
  4 26  1  0  0  0  0
  6  9  1  0  0  0  0
  6 12  1  0  0  0  0
  8 10  1  0  0  0  0
  8 11  2  0  0  0  0
  9 13  1  0  0  0  0
  9 14  1  0  0  0  0
  9 15  1  0  0  0  0
 10 16  1  0  0  0  0
 10 17  1  0  0  0  0
 10 18  1  0  0  0  0
 19 20  1  0  0  0  0
 20 21  4  0  0  0  0
 20 25  4  0  0  0  0
 21 22  4  0  0  0  0
 21 27  1  0  0  0  0
 22 23  4  0  0  0  0
 22 26  1  0  0  0  0
 23 24  4  0  0  0  0
 23 28  1  0  0  0  0
 24 25  4  0  0  0  0
 24 29  1  0  0  0  0
 25 30  1  0  0  0  0
 26 31  1  0  0  0  0
 26 32  1  0  0  0  0
M  END
> <BCLConfClusterSize>
1

> <ConfClashScore>
0 

> <ConfOneFourInteractionScore>
-0.934209 

> <ConfScore>
0.0270758 

> <ConfScorePBest>
0.00410286 

> <ConfTolerance>
0.722097 

> <RosettaParamsInstructions>
M  ROOT 3
M  POLY_N_BB 3
M  POLY_CA_BB 4
M  POLY_C_BB 2
M  POLY_O_BB 5
M  POLY_IGNORE 9 10 11 12 13 14 15 16 17 18 
M  POLY_UPPER 6
M  POLY_LOWER 8
M  POLY_CHG 0
M  POLY_PROPERTIES ALPHA_AA L_AA PROTEIN AROMATIC POLYMER 
M  END

$$$$



 32 32  0  0  0  0  0  0  0  0999 V2000
   -2.6946    1.3599    0.4515 H   0  0  0  1  0  0  0  0  0  0  0  0
   -1.4663    2.0888   -1.0787 C   0  0  0  1  0  0  0  0  0  0  0  0
   -0.9018    0.4087    0.6811 N   0  0  0  1  0  0  0  0  0  0  0  0
   -1.6583    1.6089    0.3568 C   0  0  0  1  0  0  0  0  0  0  0  0
   -0.3465    2.3077   -1.5332 O   0  0  0  1  0  0  0  0  0  0  0  0
   -2.5850    2.2504   -1.7912 N   0  0  0  1  0  0  0  0  0  0  0  0
   -0.3144    0.4175    1.4655 H   0  0  0  1  0  0  0  0  0  0  0  0
   -0.9803   -0.7046   -0.0533 C   0  0  0  1  0  0  0  0  0  0  0  0
   -2.5819    2.8475   -3.1183 C   0  0  0  1  0  0  0  0  0  0  0  0
   -0.0407   -1.8543    0.3316 C   0  0  0  1  0  0  0  0  0  0  0  0
   -1.8086   -0.8636   -0.9487 O   0  0  0  1  0  0  0  0  0  0  0  0
   -3.4372    1.9565   -1.4068 H   0  0  0  1  0  0  0  0  0  0  0  0
   -1.6626    3.3732   -3.2713 H   0  0  0  1  0  0  0  0  0  0  0  0
   -3.4014    3.5303   -3.2038 H   0  0  0  1  0  0  0  0  0  0  0  0
   -2.6796    2.0782   -3.8556 H   0  0  0  1  0  0  0  0  0  0  0  0
    0.9730   -1.5138    0.2977 H   0  0  0  1  0  0  0  0  0  0  0  0
   -0.1679   -2.6641   -0.3561 H   0  0  0  1  0  0  0  0  0  0  0  0
   -0.2719   -2.1872    1.3219 H   0  0  0  1  0  0  0  0  0  0  0  0
   -1.6223    7.5409    0.7322 F   0  0  0  1  0  0  0  0  0  0  0  0
   -2.2607    6.3591    0.8306 C   0  0  0  1  0  0  0  0  0  0  0  0
   -1.5343    5.1910    1.0018 C   0  0  0  1  0  0  0  0  0  0  0  0
   -2.1890    3.9776    1.0975 C   0  0  0  1  0  0  0  0  0  0  0  0
   -3.5726    3.9293    1.0276 C   0  0  0  1  0  0  0  0  0  0  0  0
   -4.2971    5.0939    0.8569 C   0  0  0  1  0  0  0  0  0  0  0  0
   -3.6402    6.3109    0.7610 C   0  0  0  1  0  0  0  0  0  0  0  0
   -1.3947    2.7231    1.3745 C   0  0  0  1  0  0  0  0  0  0  0  0
   -0.4965    5.2276    1.0583 H   0  0  0  1  0  0  0  0  0  0  0  0
   -4.0655    3.0168    1.1036 H   0  0  0  1  0  0  0  0  0  0  0  0
   -5.3349    5.0572    0.8005 H   0  0  0  1  0  0  0  0  0  0  0  0
   -4.1855    7.1877    0.6365 H   0  0  0  1  0  0  0  0  0  0  0  0
   -0.3532    2.9671    1.3501 H   0  0  0  1  0  0  0  0  0  0  0  0
   -1.6545    2.3635    2.3482 H   0  0  0  1  0  0  0  0  0  0  0  0
  1  4  1  0  0  0  0
  2  4  1  0  0  0  0
  2  5  2  0  0  0  0
  2  6  1  0  0  0  0
  3  4  1  0  0  0  0
  3  7  1  0  0  0  0
  3  8  1  0  0  0  0
  4 26  1  0  0  0  0
  6  9  1  0  0  0  0
  6 12  1  0  0  0  0
  8 10  1  0  0  0  0
  8 11  2  0  0  0  0
  9 13  1  0  0  0  0
  9 14  1  0  0  0  0
  9 15  1  0  0  0  0
 10 16  1  0  0  0  0
 10 17  1  0  0  0  0
 10 18  1  0  0  0  0
 19 20  1  0  0  0  0
 20 21  4  0  0  0  0
 20 25  4  0  0  0  0
 21 22  4  0  0  0  0
 21 27  1  0  0  0  0
 22 23  4  0  0  0  0
 22 26  1  0  0  0  0
 23 24  4  0  0  0  0
 23 28  1  0  0  0  0
 24 25  4  0  0  0  0
 24 29  1  0  0  0  0
 25 30  1  0  0  0  0
 26 31  1  0  0  0  0
 26 32  1  0  0  0  0
M  END
> <BCLConfClusterSize>
1

> <ConfClashScore>
0 

> <ConfOneFourInteractionScore>
-0.985807 

> <ConfScore>
0.0287441 

> <ConfScorePBest>
0.00407438 

> <ConfTolerance>
0.616552 

> <RosettaParamsInstructions>
M  ROOT 3
M  POLY_N_BB 3
M  POLY_CA_BB 4
M  POLY_C_BB 2
M  POLY_O_BB 5
M  POLY_IGNORE 9 10 11 12 13 14 15 16 17 18 
M  POLY_UPPER 6
M  POLY_LOWER 8
M  POLY_CHG 0
M  POLY_PROPERTIES ALPHA_AA L_AA PROTEIN AROMATIC POLYMER 
M  END

$$$$



 32 32  0  0  0  0  0  0  0  0999 V2000
   -2.1418    2.2364    3.2276 H   0  0  0  1  0  0  0  0  0  0  0  0
   -0.5173    0.9342    2.9054 C   0  0  0  1  0  0  0  0  0  0  0  0
   -0.3824    3.2832    3.4799 N   0  0  0  1  0  0  0  0  0  0  0  0
   -1.1800    2.2949    2.7625 C   0  0  0  1  0  0  0  0  0  0  0  0
   -0.6146    0.0810    2.0244 O   0  0  0  1  0  0  0  0  0  0  0  0
    0.1683    0.7362    4.0416 N   0  0  0  1  0  0  0  0  0  0  0  0
   -0.7898    3.8665    4.1539 H   0  0  0  1  0  0  0  0  0  0  0  0
    0.9303    3.3714    3.1897 C   0  0  0  1  0  0  0  0  0  0  0  0
    0.8066   -0.5467    4.2958 C   0  0  0  1  0  0  0  0  0  0  0  0
    1.6851    4.3649    4.0635 C   0  0  0  1  0  0  0  0  0  0  0  0
    1.4977    2.7257    2.3094 O   0  0  0  1  0  0  0  0  0  0  0  0
    0.2395    1.4570    4.7017 H   0  0  0  1  0  0  0  0  0  0  0  0
    1.2544   -0.9079    3.3936 H   0  0  0  1  0  0  0  0  0  0  0  0
    0.0736   -1.2484    4.6355 H   0  0  0  1  0  0  0  0  0  0  0  0
    1.5610   -0.4273    5.0451 H   0  0  0  1  0  0  0  0  0  0  0  0
    1.4407    4.1944    5.0911 H   0  0  0  1  0  0  0  0  0  0  0  0
    1.4071    5.3617    3.7916 H   0  0  0  1  0  0  0  0  0  0  0  0
    2.7379    4.2364    3.9215 H   0  0  0  1  0  0  0  0  0  0  0  0
   -1.6228    7.5417    0.7261 F   0  0  0  1  0  0  0  0  0  0  0  0
   -2.2608    6.3603    0.8314 C   0  0  0  1  0  0  0  0  0  0  0  0
   -1.5345    5.1943    1.0172 C   0  0  0  1  0  0  0  0  0  0  0  0
   -2.1888    3.9813    1.1199 C   0  0  0  1  0  0  0  0  0  0  0  0
   -3.5719    3.9313    1.0424 C   0  0  0  1  0  0  0  0  0  0  0  0
   -4.2963    5.0937    0.8570 C   0  0  0  1  0  0  0  0  0  0  0  0
   -3.6399    6.3103    0.7541 C   0  0  0  1  0  0  0  0  0  0  0  0
   -1.3975    2.7098    1.3166 C   0  0  0  1  0  0  0  0  0  0  0  0
   -0.4971    5.2324    1.0794 H   0  0  0  1  0  0  0  0  0  0  0  0
   -4.0646    3.0190    1.1236 H   0  0  0  1  0  0  0  0  0  0  0  0
   -5.3338    5.0556    0.7949 H   0  0  0  1  0  0  0  0  0  0  0  0
   -4.1852    7.1855    0.6187 H   0  0  0  1  0  0  0  0  0  0  0  0
   -1.9177    1.9172    0.8204 H   0  0  0  1  0  0  0  0  0  0  0  0
   -0.4375    2.8452    0.8640 H   0  0  0  1  0  0  0  0  0  0  0  0
  1  4  1  0  0  0  0
  2  4  1  0  0  0  0
  2  5  2  0  0  0  0
  2  6  1  0  0  0  0
  3  4  1  0  0  0  0
  3  7  1  0  0  0  0
  3  8  1  0  0  0  0
  4 26  1  0  0  0  0
  6  9  1  0  0  0  0
  6 12  1  0  0  0  0
  8 10  1  0  0  0  0
  8 11  2  0  0  0  0
  9 13  1  0  0  0  0
  9 14  1  0  0  0  0
  9 15  1  0  0  0  0
 10 16  1  0  0  0  0
 10 17  1  0  0  0  0
 10 18  1  0  0  0  0
 19 20  1  0  0  0  0
 20 21  4  0  0  0  0
 20 25  4  0  0  0  0
 21 22  4  0  0  0  0
 21 27  1  0  0  0  0
 22 23  4  0  0  0  0
 22 26  1  0  0  0  0
 23 24  4  0  0  0  0
 23 28  1  0  0  0  0
 24 25  4  0  0  0  0
 24 29  1  0  0  0  0
 25 30  1  0  0  0  0
 26 31  1  0  0  0  0
 26 32  1  0  0  0  0
M  END
> <BCLConfClusterSize>
1

> <ConfClashScore>
0 

> <ConfOneFourInteractionScore>
-0.957364 

> <ConfScore>
0.0292132 

> <ConfScorePBest>
0.00404589 

> <ConfTolerance>
0.272075 

> <RosettaParamsInstructions>
M  ROOT 3
M  POLY_N_BB 3
M  POLY_CA_BB 4
M  POLY_C_BB 2
M  POLY_O_BB 5
M  POLY_IGNORE 9 10 11 12 13 14 15 16 17 18 
M  POLY_UPPER 6
M  POLY_LOWER 8
M  POLY_CHG 0
M  POLY_PROPERTIES ALPHA_AA L_AA PROTEIN AROMATIC POLYMER 
M  END

$$$$



 32 32  0  0  0  0  0  0  0  0999 V2000
   -0.1232    2.8733   -0.3834 H   0  0  0  1  0  0  0  0  0  0  0  0
   -0.0869    0.8716    0.3383 C   0  0  0  1  0  0  0  0  0  0  0  0
   -1.8686    1.8766   -0.9468 N   0  0  0  1  0  0  0  0  0  0  0  0
   -0.8147    2.1632    0.0199 C   0  0  0  1  0  0  0  0  0  0  0  0
    0.5669    0.7489    1.3610 O   0  0  0  1  0  0  0  0  0  0  0  0
   -0.2129   -0.1081   -0.5707 N   0  0  0  1  0  0  0  0  0  0  0  0
   -1.8788    2.3678   -1.7948 H   0  0  0  1  0  0  0  0  0  0  0  0
   -2.8204    0.9678   -0.7166 C   0  0  0  1  0  0  0  0  0  0  0  0
    0.4243   -1.4063   -0.4079 C   0  0  0  1  0  0  0  0  0  0  0  0
   -3.8207    0.7630   -1.8375 C   0  0  0  1  0  0  0  0  0  0  0  0
   -2.8964    0.3282    0.3317 O   0  0  0  1  0  0  0  0  0  0  0  0
   -0.7526    0.0567   -1.3719 H   0  0  0  1  0  0  0  0  0  0  0  0
    1.4070   -1.2740   -0.0058 H   0  0  0  1  0  0  0  0  0  0  0  0
    0.4907   -1.8925   -1.3587 H   0  0  0  1  0  0  0  0  0  0  0  0
   -0.1564   -2.0070    0.2607 H   0  0  0  1  0  0  0  0  0  0  0  0
   -3.2997    0.6540   -2.7657 H   0  0  0  1  0  0  0  0  0  0  0  0
   -4.4729    1.6095   -1.8922 H   0  0  0  1  0  0  0  0  0  0  0  0
   -4.3954   -0.1189   -1.6457 H   0  0  0  1  0  0  0  0  0  0  0  0
   -1.6228    7.5417    0.7261 F   0  0  0  1  0  0  0  0  0  0  0  0
   -2.2608    6.3603    0.8314 C   0  0  0  1  0  0  0  0  0  0  0  0
   -1.5345    5.1943    1.0172 C   0  0  0  1  0  0  0  0  0  0  0  0
   -2.1888    3.9813    1.1199 C   0  0  0  1  0  0  0  0  0  0  0  0
   -3.5719    3.9313    1.0424 C   0  0  0  1  0  0  0  0  0  0  0  0
   -4.2963    5.0937    0.8570 C   0  0  0  1  0  0  0  0  0  0  0  0
   -3.6399    6.3103    0.7541 C   0  0  0  1  0  0  0  0  0  0  0  0
   -1.3975    2.7098    1.3166 C   0  0  0  1  0  0  0  0  0  0  0  0
   -0.4971    5.2324    1.0794 H   0  0  0  1  0  0  0  0  0  0  0  0
   -4.0646    3.0190    1.1236 H   0  0  0  1  0  0  0  0  0  0  0  0
   -5.3338    5.0556    0.7949 H   0  0  0  1  0  0  0  0  0  0  0  0
   -4.1852    7.1855    0.6187 H   0  0  0  1  0  0  0  0  0  0  0  0
   -0.5935    2.9103    1.9935 H   0  0  0  1  0  0  0  0  0  0  0  0
   -2.0435    1.9685    1.7387 H   0  0  0  1  0  0  0  0  0  0  0  0
  1  4  1  0  0  0  0
  2  4  1  0  0  0  0
  2  5  2  0  0  0  0
  2  6  1  0  0  0  0
  3  4  1  0  0  0  0
  3  7  1  0  0  0  0
  3  8  1  0  0  0  0
  4 26  1  0  0  0  0
  6  9  1  0  0  0  0
  6 12  1  0  0  0  0
  8 10  1  0  0  0  0
  8 11  2  0  0  0  0
  9 13  1  0  0  0  0
  9 14  1  0  0  0  0
  9 15  1  0  0  0  0
 10 16  1  0  0  0  0
 10 17  1  0  0  0  0
 10 18  1  0  0  0  0
 19 20  1  0  0  0  0
 20 21  4  0  0  0  0
 20 25  4  0  0  0  0
 21 22  4  0  0  0  0
 21 27  1  0  0  0  0
 22 23  4  0  0  0  0
 22 26  1  0  0  0  0
 23 24  4  0  0  0  0
 23 28  1  0  0  0  0
 24 25  4  0  0  0  0
 24 29  1  0  0  0  0
 25 30  1  0  0  0  0
 26 31  1  0  0  0  0
 26 32  1  0  0  0  0
M  END
> <BCLConfClusterSize>
1

> <ConfClashScore>
0 

> <ConfOneFourInteractionScore>
-0.938696 

> <ConfScore>
0.0301257 

> <ConfScorePBest>
0.00401741 

> <ConfTolerance>
0.255954 

> <RosettaParamsInstructions>
M  ROOT 3
M  POLY_N_BB 3
M  POLY_CA_BB 4
M  POLY_C_BB 2
M  POLY_O_BB 5
M  POLY_IGNORE 9 10 11 12 13 14 15 16 17 18 
M  POLY_UPPER 6
M  POLY_LOWER 8
M  POLY_CHG 0
M  POLY_PROPERTIES ALPHA_AA L_AA PROTEIN AROMATIC POLYMER 
M  END

$$$$



 32 32  0  0  0  0  0  0  0  0999 V2000
   -1.0537    2.9201    3.3902 H   0  0  0  1  0  0  0  0  0  0  0  0
    0.1524    1.3186    2.7058 C   0  0  0  1  0  0  0  0  0  0  0  0
    0.5748    3.7072    2.3823 N   0  0  0  1  0  0  0  0  0  0  0  0
   -0.4703    2.6992    2.5209 C   0  0  0  1  0  0  0  0  0  0  0  0
    1.1646    0.9768    2.1218 O   0  0  0  1  0  0  0  0  0  0  0  0
   -0.4289    0.4512    3.5359 N   0  0  0  1  0  0  0  0  0  0  0  0
    0.7235    4.1168    1.5045 H   0  0  0  1  0  0  0  0  0  0  0  0
    1.3605    4.1038    3.4431 C   0  0  0  1  0  0  0  0  0  0  0  0
    0.0674   -0.8861    3.8248 C   0  0  0  1  0  0  0  0  0  0  0  0
    2.4613    5.0710    3.1187 C   0  0  0  1  0  0  0  0  0  0  0  0
    1.1408    3.6710    4.5625 O   0  0  0  1  0  0  0  0  0  0  0  0
   -1.2521    0.7358    3.9850 H   0  0  0  1  0  0  0  0  0  0  0  0
    0.6817   -1.2216    3.0156 H   0  0  0  1  0  0  0  0  0  0  0  0
   -0.7593   -1.5546    3.9457 H   0  0  0  1  0  0  0  0  0  0  0  0
    0.6445   -0.8652    4.7256 H   0  0  0  1  0  0  0  0  0  0  0  0
    2.4785    5.2520    2.0643 H   0  0  0  1  0  0  0  0  0  0  0  0
    3.3999    4.6585    3.4249 H   0  0  0  1  0  0  0  0  0  0  0  0
    2.2903    5.9921    3.6357 H   0  0  0  1  0  0  0  0  0  0  0  0
   -1.6228    7.5417    0.7261 F   0  0  0  1  0  0  0  0  0  0  0  0
   -2.2608    6.3603    0.8314 C   0  0  0  1  0  0  0  0  0  0  0  0
   -1.5345    5.1943    1.0172 C   0  0  0  1  0  0  0  0  0  0  0  0
   -2.1888    3.9813    1.1199 C   0  0  0  1  0  0  0  0  0  0  0  0
   -3.5719    3.9313    1.0424 C   0  0  0  1  0  0  0  0  0  0  0  0
   -4.2963    5.0937    0.8570 C   0  0  0  1  0  0  0  0  0  0  0  0
   -3.6399    6.3103    0.7541 C   0  0  0  1  0  0  0  0  0  0  0  0
   -1.3975    2.7098    1.3166 C   0  0  0  1  0  0  0  0  0  0  0  0
   -0.4971    5.2324    1.0794 H   0  0  0  1  0  0  0  0  0  0  0  0
   -4.0646    3.0190    1.1236 H   0  0  0  1  0  0  0  0  0  0  0  0
   -5.3338    5.0556    0.7949 H   0  0  0  1  0  0  0  0  0  0  0  0
   -4.1852    7.1855    0.6187 H   0  0  0  1  0  0  0  0  0  0  0  0
   -2.0915    1.9029    1.4272 H   0  0  0  1  0  0  0  0  0  0  0  0
   -0.8031    2.5522    0.4409 H   0  0  0  1  0  0  0  0  0  0  0  0
  1  4  1  0  0  0  0
  2  4  1  0  0  0  0
  2  5  2  0  0  0  0
  2  6  1  0  0  0  0
  3  4  1  0  0  0  0
  3  7  1  0  0  0  0
  3  8  1  0  0  0  0
  4 26  1  0  0  0  0
  6  9  1  0  0  0  0
  6 12  1  0  0  0  0
  8 10  1  0  0  0  0
  8 11  2  0  0  0  0
  9 13  1  0  0  0  0
  9 14  1  0  0  0  0
  9 15  1  0  0  0  0
 10 16  1  0  0  0  0
 10 17  1  0  0  0  0
 10 18  1  0  0  0  0
 19 20  1  0  0  0  0
 20 21  4  0  0  0  0
 20 25  4  0  0  0  0
 21 22  4  0  0  0  0
 21 27  1  0  0  0  0
 22 23  4  0  0  0  0
 22 26  1  0  0  0  0
 23 24  4  0  0  0  0
 23 28  1  0  0  0  0
 24 25  4  0  0  0  0
 24 29  1  0  0  0  0
 25 30  1  0  0  0  0
 26 31  1  0  0  0  0
 26 32  1  0  0  0  0
M  END
> <BCLConfClusterSize>
1

> <ConfClashScore>
0 

> <ConfOneFourInteractionScore>
-0.981931 

> <ConfScore>
0.030569 

> <ConfScorePBest>
0.00398893 

> <ConfTolerance>
0.44452 

> <RosettaParamsInstructions>
M  ROOT 3
M  POLY_N_BB 3
M  POLY_CA_BB 4
M  POLY_C_BB 2
M  POLY_O_BB 5
M  POLY_IGNORE 9 10 11 12 13 14 15 16 17 18 
M  POLY_UPPER 6
M  POLY_LOWER 8
M  POLY_CHG 0
M  POLY_PROPERTIES ALPHA_AA L_AA PROTEIN AROMATIC POLYMER 
M  END

$$$$



 32 32  0  0  0  0  0  0  0  0999 V2000
   -0.4621    1.1644    0.1520 H   0  0  0  1  0  0  0  0  0  0  0  0
   -2.1390    1.8307   -0.9473 C   0  0  0  1  0  0  0  0  0  0  0  0
    0.0483    2.9871   -0.6738 N   0  0  0  1  0  0  0  0  0  0  0  0
   -0.9312    2.1022   -0.0611 C   0  0  0  1  0  0  0  0  0  0  0  0
   -2.5150    2.6604   -1.7712 O   0  0  0  1  0  0  0  0  0  0  0  0
   -2.7789    0.6597   -0.8008 N   0  0  0  1  0  0  0  0  0  0  0  0
    0.3755    3.7566   -0.1627 H   0  0  0  1  0  0  0  0  0  0  0  0
    0.5171    2.7868   -1.9087 C   0  0  0  1  0  0  0  0  0  0  0  0
   -4.0547    0.3851   -1.4447 C   0  0  0  1  0  0  0  0  0  0  0  0
    1.5782    3.7636   -2.3769 C   0  0  0  1  0  0  0  0  0  0  0  0
    0.1258    1.8754   -2.6330 O   0  0  0  1  0  0  0  0  0  0  0  0
   -2.3726   -0.0343   -0.2407 H   0  0  0  1  0  0  0  0  0  0  0  0
   -4.6832    1.2482   -1.3749 H   0  0  0  1  0  0  0  0  0  0  0  0
   -4.5290   -0.4414   -0.9580 H   0  0  0  1  0  0  0  0  0  0  0  0
   -3.8900    0.1465   -2.4747 H   0  0  0  1  0  0  0  0  0  0  0  0
    1.1775    4.7558   -2.3720 H   0  0  0  1  0  0  0  0  0  0  0  0
    1.8848    3.5081   -3.3697 H   0  0  0  1  0  0  0  0  0  0  0  0
    2.4211    3.7164   -1.7195 H   0  0  0  1  0  0  0  0  0  0  0  0
   -1.6229    7.5419    0.7201 F   0  0  0  1  0  0  0  0  0  0  0  0
   -2.2607    6.3610    0.8321 C   0  0  0  1  0  0  0  0  0  0  0  0
   -1.5347    5.1973    1.0326 C   0  0  0  1  0  0  0  0  0  0  0  0
   -2.1888    3.9847    1.1423 C   0  0  0  1  0  0  0  0  0  0  0  0
   -3.5713    3.9330    1.0571 C   0  0  0  1  0  0  0  0  0  0  0  0
   -4.2955    5.0931    0.8572 C   0  0  0  1  0  0  0  0  0  0  0  0
   -3.6393    6.3092    0.7473 C   0  0  0  1  0  0  0  0  0  0  0  0
   -1.4017    2.7007    1.2580 C   0  0  0  1  0  0  0  0  0  0  0  0
   -0.4977    5.2366    1.1005 H   0  0  0  1  0  0  0  0  0  0  0  0
   -4.0638    3.0211    1.1436 H   0  0  0  1  0  0  0  0  0  0  0  0
   -5.3325    5.0537    0.7893 H   0  0  0  1  0  0  0  0  0  0  0  0
   -4.1844    7.1828    0.6009 H   0  0  0  1  0  0  0  0  0  0  0  0
   -0.5379    2.8961    1.8585 H   0  0  0  1  0  0  0  0  0  0  0  0
   -2.0203    1.9773    1.7468 H   0  0  0  1  0  0  0  0  0  0  0  0
  1  4  1  0  0  0  0
  2  4  1  0  0  0  0
  2  5  2  0  0  0  0
  2  6  1  0  0  0  0
  3  4  1  0  0  0  0
  3  7  1  0  0  0  0
  3  8  1  0  0  0  0
  4 26  1  0  0  0  0
  6  9  1  0  0  0  0
  6 12  1  0  0  0  0
  8 10  1  0  0  0  0
  8 11  2  0  0  0  0
  9 13  1  0  0  0  0
  9 14  1  0  0  0  0
  9 15  1  0  0  0  0
 10 16  1  0  0  0  0
 10 17  1  0  0  0  0
 10 18  1  0  0  0  0
 19 20  1  0  0  0  0
 20 21  4  0  0  0  0
 20 25  4  0  0  0  0
 21 22  4  0  0  0  0
 21 27  1  0  0  0  0
 22 23  4  0  0  0  0
 22 26  1  0  0  0  0
 23 24  4  0  0  0  0
 23 28  1  0  0  0  0
 24 25  4  0  0  0  0
 24 29  1  0  0  0  0
 25 30  1  0  0  0  0
 26 31  1  0  0  0  0
 26 32  1  0  0  0  0
M  END
> <BCLConfClusterSize>
1

> <ConfClashScore>
0 

> <ConfOneFourInteractionScore>
-0.982563 

> <ConfScore>
0.0305897 

> <ConfScorePBest>
0.00396045 

> <ConfTolerance>
0.42989 

> <RosettaParamsInstructions>
M  ROOT 3
M  POLY_N_BB 3
M  POLY_CA_BB 4
M  POLY_C_BB 2
M  POLY_O_BB 5
M  POLY_IGNORE 9 10 11 12 13 14 15 16 17 18 
M  POLY_UPPER 6
M  POLY_LOWER 8
M  POLY_CHG 0
M  POLY_PROPERTIES ALPHA_AA L_AA PROTEIN AROMATIC POLYMER 
M  END

$$$$



 32 32  0  0  0  0  0  0  0  0999 V2000
   -0.6286    1.5192    2.9110 H   0  0  0  1  0  0  0  0  0  0  0  0
   -0.3150    3.5581    3.4126 C   0  0  0  1  0  0  0  0  0  0  0  0
   -2.4053    2.3829    3.5521 N   0  0  0  1  0  0  0  0  0  0  0  0
   -1.1558    2.4447    2.8087 C   0  0  0  1  0  0  0  0  0  0  0  0
   -0.8379    4.5443    3.9289 O   0  0  0  1  0  0  0  0  0  0  0  0
    1.0058    3.3897    3.3425 N   0  0  0  1  0  0  0  0  0  0  0  0
   -3.2351    2.5878    3.0726 H   0  0  0  1  0  0  0  0  0  0  0  0
   -2.4943    2.0615    4.8594 C   0  0  0  1  0  0  0  0  0  0  0  0
    1.9428    4.3470    3.9113 C   0  0  0  1  0  0  0  0  0  0  0  0
   -3.8375    2.2246    5.5438 C   0  0  0  1  0  0  0  0  0  0  0  0
   -1.5231    1.6512    5.4757 O   0  0  0  1  0  0  0  0  0  0  0  0
    1.3578    2.5936    2.8924 H   0  0  0  1  0  0  0  0  0  0  0  0
    1.4747    5.3067    3.9810 H   0  0  0  1  0  0  0  0  0  0  0  0
    2.8064    4.4165    3.2834 H   0  0  0  1  0  0  0  0  0  0  0  0
    2.2361    4.0217    4.8875 H   0  0  0  1  0  0  0  0  0  0  0  0
   -4.1499    3.2459    5.4787 H   0  0  0  1  0  0  0  0  0  0  0  0
   -3.7498    1.9436    6.5725 H   0  0  0  1  0  0  0  0  0  0  0  0
   -4.5606    1.5993    5.0632 H   0  0  0  1  0  0  0  0  0  0  0  0
   -1.6228    7.5417    0.7261 F   0  0  0  1  0  0  0  0  0  0  0  0
   -2.2608    6.3603    0.8314 C   0  0  0  1  0  0  0  0  0  0  0  0
   -1.5345    5.1943    1.0172 C   0  0  0  1  0  0  0  0  0  0  0  0
   -2.1888    3.9813    1.1199 C   0  0  0  1  0  0  0  0  0  0  0  0
   -3.5719    3.9313    1.0424 C   0  0  0  1  0  0  0  0  0  0  0  0
   -4.2963    5.0937    0.8570 C   0  0  0  1  0  0  0  0  0  0  0  0
   -3.6399    6.3103    0.7541 C   0  0  0  1  0  0  0  0  0  0  0  0
   -1.3975    2.7098    1.3166 C   0  0  0  1  0  0  0  0  0  0  0  0
   -0.4971    5.2324    1.0794 H   0  0  0  1  0  0  0  0  0  0  0  0
   -4.0646    3.0190    1.1236 H   0  0  0  1  0  0  0  0  0  0  0  0
   -5.3338    5.0556    0.7949 H   0  0  0  1  0  0  0  0  0  0  0  0
   -4.1852    7.1855    0.6187 H   0  0  0  1  0  0  0  0  0  0  0  0
   -1.9423    1.8893    0.8982 H   0  0  0  1  0  0  0  0  0  0  0  0
   -0.4546    2.8030    0.8195 H   0  0  0  1  0  0  0  0  0  0  0  0
  1  4  1  0  0  0  0
  2  4  1  0  0  0  0
  2  5  2  0  0  0  0
  2  6  1  0  0  0  0
  3  4  1  0  0  0  0
  3  7  1  0  0  0  0
  3  8  1  0  0  0  0
  4 26  1  0  0  0  0
  6  9  1  0  0  0  0
  6 12  1  0  0  0  0
  8 10  1  0  0  0  0
  8 11  2  0  0  0  0
  9 13  1  0  0  0  0
  9 14  1  0  0  0  0
  9 15  1  0  0  0  0
 10 16  1  0  0  0  0
 10 17  1  0  0  0  0
 10 18  1  0  0  0  0
 19 20  1  0  0  0  0
 20 21  4  0  0  0  0
 20 25  4  0  0  0  0
 21 22  4  0  0  0  0
 21 27  1  0  0  0  0
 22 23  4  0  0  0  0
 22 26  1  0  0  0  0
 23 24  4  0  0  0  0
 23 28  1  0  0  0  0
 24 25  4  0  0  0  0
 24 29  1  0  0  0  0
 25 30  1  0  0  0  0
 26 31  1  0  0  0  0
 26 32  1  0  0  0  0
M  END
> <BCLConfClusterSize>
1

> <ConfClashScore>
0 

> <ConfOneFourInteractionScore>
-0.977982 

> <ConfScore>
0.0305897 

> <ConfScorePBest>
0.00393197 

> <ConfTolerance>
0.320587 

> <RosettaParamsInstructions>
M  ROOT 3
M  POLY_N_BB 3
M  POLY_CA_BB 4
M  POLY_C_BB 2
M  POLY_O_BB 5
M  POLY_IGNORE 9 10 11 12 13 14 15 16 17 18 
M  POLY_UPPER 6
M  POLY_LOWER 8
M  POLY_CHG 0
M  POLY_PROPERTIES ALPHA_AA L_AA PROTEIN AROMATIC POLYMER 
M  END

$$$$



 32 32  0  0  0  0  0  0  0  0999 V2000
   -1.7847    2.9809    3.3685 H   0  0  0  1  0  0  0  0  0  0  0  0
   -1.3055    0.9527    3.1037 C   0  0  0  1  0  0  0  0  0  0  0  0
    0.2555    2.8740    3.1077 N   0  0  0  1  0  0  0  0  0  0  0  0
   -1.0907    2.4183    2.7797 C   0  0  0  1  0  0  0  0  0  0  0  0
   -2.4285    0.5065    3.3233 O   0  0  0  1  0  0  0  0  0  0  0  0
   -0.1988    0.1934    3.1322 N   0  0  0  1  0  0  0  0  0  0  0  0
    0.8443    3.1201    2.3639 H   0  0  0  1  0  0  0  0  0  0  0  0
    0.7463    2.9812    4.3457 C   0  0  0  1  0  0  0  0  0  0  0  0
   -0.2448   -1.2384    3.3886 C   0  0  0  1  0  0  0  0  0  0  0  0
    2.2024    3.3766    4.4430 C   0  0  0  1  0  0  0  0  0  0  0  0
    0.0730    2.7757    5.3521 O   0  0  0  1  0  0  0  0  0  0  0  0
    0.6703    0.6181    2.9749 H   0  0  0  1  0  0  0  0  0  0  0  0
    0.7459   -1.6405    3.3476 H   0  0  0  1  0  0  0  0  0  0  0  0
   -0.8533   -1.7137    2.6479 H   0  0  0  1  0  0  0  0  0  0  0  0
   -0.6607   -1.4136    4.3587 H   0  0  0  1  0  0  0  0  0  0  0  0
    2.6357    3.3876    3.4647 H   0  0  0  1  0  0  0  0  0  0  0  0
    2.7232    2.6707    5.0556 H   0  0  0  1  0  0  0  0  0  0  0  0
    2.2787    4.3514    4.8775 H   0  0  0  1  0  0  0  0  0  0  0  0
   -1.6228    7.5417    0.7261 F   0  0  0  1  0  0  0  0  0  0  0  0
   -2.2608    6.3603    0.8314 C   0  0  0  1  0  0  0  0  0  0  0  0
   -1.5345    5.1943    1.0172 C   0  0  0  1  0  0  0  0  0  0  0  0
   -2.1888    3.9813    1.1199 C   0  0  0  1  0  0  0  0  0  0  0  0
   -3.5719    3.9313    1.0424 C   0  0  0  1  0  0  0  0  0  0  0  0
   -4.2963    5.0937    0.8570 C   0  0  0  1  0  0  0  0  0  0  0  0
   -3.6399    6.3103    0.7541 C   0  0  0  1  0  0  0  0  0  0  0  0
   -1.3975    2.7098    1.3166 C   0  0  0  1  0  0  0  0  0  0  0  0
   -0.4971    5.2324    1.0794 H   0  0  0  1  0  0  0  0  0  0  0  0
   -4.0646    3.0190    1.1236 H   0  0  0  1  0  0  0  0  0  0  0  0
   -5.3338    5.0556    0.7949 H   0  0  0  1  0  0  0  0  0  0  0  0
   -4.1852    7.1855    0.6187 H   0  0  0  1  0  0  0  0  0  0  0  0
   -1.9613    1.8926    0.9175 H   0  0  0  1  0  0  0  0  0  0  0  0
   -0.4727    2.7987    0.7858 H   0  0  0  1  0  0  0  0  0  0  0  0
  1  4  1  0  0  0  0
  2  4  1  0  0  0  0
  2  5  2  0  0  0  0
  2  6  1  0  0  0  0
  3  4  1  0  0  0  0
  3  7  1  0  0  0  0
  3  8  1  0  0  0  0
  4 26  1  0  0  0  0
  6  9  1  0  0  0  0
  6 12  1  0  0  0  0
  8 10  1  0  0  0  0
  8 11  2  0  0  0  0
  9 13  1  0  0  0  0
  9 14  1  0  0  0  0
  9 15  1  0  0  0  0
 10 16  1  0  0  0  0
 10 17  1  0  0  0  0
 10 18  1  0  0  0  0
 19 20  1  0  0  0  0
 20 21  4  0  0  0  0
 20 25  4  0  0  0  0
 21 22  4  0  0  0  0
 21 27  1  0  0  0  0
 22 23  4  0  0  0  0
 22 26  1  0  0  0  0
 23 24  4  0  0  0  0
 23 28  1  0  0  0  0
 24 25  4  0  0  0  0
 24 29  1  0  0  0  0
 25 30  1  0  0  0  0
 26 31  1  0  0  0  0
 26 32  1  0  0  0  0
M  END
> <BCLConfClusterSize>
1

> <ConfClashScore>
0 

> <ConfOneFourInteractionScore>
-0.948834 

> <ConfScore>
0.032308 

> <ConfScorePBest>
0.00390349 

> <ConfTolerance>
0.750982 

> <RosettaParamsInstructions>
M  ROOT 3
M  POLY_N_BB 3
M  POLY_CA_BB 4
M  POLY_C_BB 2
M  POLY_O_BB 5
M  POLY_IGNORE 9 10 11 12 13 14 15 16 17 18 
M  POLY_UPPER 6
M  POLY_LOWER 8
M  POLY_CHG 0
M  POLY_PROPERTIES ALPHA_AA L_AA PROTEIN AROMATIC POLYMER 
M  END

$$$$



 32 32  0  0  0  0  0  0  0  0999 V2000
    0.2526    3.6440    2.2596 H   0  0  0  1  0  0  0  0  0  0  0  0
    0.8628    1.6874    1.7553 C   0  0  0  1  0  0  0  0  0  0  0  0
    0.5801    3.5782    0.2194 N   0  0  0  1  0  0  0  0  0  0  0  0
    0.1021    2.9627    1.4484 C   0  0  0  1  0  0  0  0  0  0  0  0
    1.2004    0.9141    0.8598 O   0  0  0  1  0  0  0  0  0  0  0  0
    1.1355    1.4685    3.0514 N   0  0  0  1  0  0  0  0  0  0  0  0
    0.0245    3.5201   -0.5858 H   0  0  0  1  0  0  0  0  0  0  0  0
    1.7500    4.2198    0.1506 C   0  0  0  1  0  0  0  0  0  0  0  0
    1.9742    0.3645    3.4937 C   0  0  0  1  0  0  0  0  0  0  0  0
    2.0684    4.8679   -1.1827 C   0  0  0  1  0  0  0  0  0  0  0  0
    2.5304    4.2908    1.0963 O   0  0  0  1  0  0  0  0  0  0  0  0
    0.7565    2.0731    3.7231 H   0  0  0  1  0  0  0  0  0  0  0  0
    2.7546    0.2008    2.7802 H   0  0  0  1  0  0  0  0  0  0  0  0
    1.3803   -0.5212    3.5818 H   0  0  0  1  0  0  0  0  0  0  0  0
    2.4043    0.6022    4.4441 H   0  0  0  1  0  0  0  0  0  0  0  0
    1.4808    5.7546   -1.2983 H   0  0  0  1  0  0  0  0  0  0  0  0
    1.8419    4.1846   -1.9743 H   0  0  0  1  0  0  0  0  0  0  0  0
    3.1073    5.1219   -1.2164 H   0  0  0  1  0  0  0  0  0  0  0  0
   -1.5924    7.5248    0.7300 F   0  0  0  1  0  0  0  0  0  0  0  0
   -2.2671    6.3635    0.8306 C   0  0  0  1  0  0  0  0  0  0  0  0
   -1.5379    5.1994    1.0164 C   0  0  0  1  0  0  0  0  0  0  0  0
   -2.1893    3.9848    1.1194 C   0  0  0  1  0  0  0  0  0  0  0  0
   -3.5723    3.9314    1.0423 C   0  0  0  1  0  0  0  0  0  0  0  0
   -4.2996    5.0921    0.8570 C   0  0  0  1  0  0  0  0  0  0  0  0
   -3.6461    6.3102    0.7537 C   0  0  0  1  0  0  0  0  0  0  0  0
   -1.3949    2.7152    1.3161 C   0  0  0  1  0  0  0  0  0  0  0  0
   -0.5006    5.2399    1.0783 H   0  0  0  1  0  0  0  0  0  0  0  0
   -4.0627    3.0180    1.1239 H   0  0  0  1  0  0  0  0  0  0  0  0
   -5.3369    5.0515    0.7952 H   0  0  0  1  0  0  0  0  0  0  0  0
   -4.1935    7.1841    0.6183 H   0  0  0  1  0  0  0  0  0  0  0  0
   -1.7402    2.2318    2.2060 H   0  0  0  1  0  0  0  0  0  0  0  0
   -1.5613    2.0756    0.4746 H   0  0  0  1  0  0  0  0  0  0  0  0
  1  4  1  0  0  0  0
  2  4  1  0  0  0  0
  2  5  2  0  0  0  0
  2  6  1  0  0  0  0
  3  4  1  0  0  0  0
  3  7  1  0  0  0  0
  3  8  1  0  0  0  0
  4 26  1  0  0  0  0
  6  9  1  0  0  0  0
  6 12  1  0  0  0  0
  8 10  1  0  0  0  0
  8 11  2  0  0  0  0
  9 13  1  0  0  0  0
  9 14  1  0  0  0  0
  9 15  1  0  0  0  0
 10 16  1  0  0  0  0
 10 17  1  0  0  0  0
 10 18  1  0  0  0  0
 19 20  1  0  0  0  0
 20 21  4  0  0  0  0
 20 25  4  0  0  0  0
 21 22  4  0  0  0  0
 21 27  1  0  0  0  0
 22 23  4  0  0  0  0
 22 26  1  0  0  0  0
 23 24  4  0  0  0  0
 23 28  1  0  0  0  0
 24 25  4  0  0  0  0
 24 29  1  0  0  0  0
 25 30  1  0  0  0  0
 26 31  1  0  0  0  0
 26 32  1  0  0  0  0
M  END
> <BCLConfClusterSize>
1

> <ConfClashScore>
0 

> <ConfOneFourInteractionScore>
-0.97449 

> <ConfScore>
0.0346457 

> <ConfScorePBest>
0.00387501 

> <ConfTolerance>
0.693985 

> <RosettaParamsInstructions>
M  ROOT 3
M  POLY_N_BB 3
M  POLY_CA_BB 4
M  POLY_C_BB 2
M  POLY_O_BB 5
M  POLY_IGNORE 9 10 11 12 13 14 15 16 17 18 
M  POLY_UPPER 6
M  POLY_LOWER 8
M  POLY_CHG 0
M  POLY_PROPERTIES ALPHA_AA L_AA PROTEIN AROMATIC POLYMER 
M  END

$$$$



 32 32  0  0  0  0  0  0  0  0999 V2000
   -1.9702    2.5666    3.3922 H   0  0  0  1  0  0  0  0  0  0  0  0
   -0.2831    1.3355    3.1475 C   0  0  0  1  0  0  0  0  0  0  0  0
   -0.3641    3.8417    3.2572 N   0  0  0  1  0  0  0  0  0  0  0  0
   -1.0456    2.6199    2.8563 C   0  0  0  1  0  0  0  0  0  0  0  0
    0.6352    0.9612    2.4230 O   0  0  0  1  0  0  0  0  0  0  0  0
   -0.6809    0.6548    4.2341 N   0  0  0  1  0  0  0  0  0  0  0  0
    0.5144    4.0577    2.8804 H   0  0  0  1  0  0  0  0  0  0  0  0
   -0.9359    4.6729    4.1416 C   0  0  0  1  0  0  0  0  0  0  0  0
    0.0072   -0.4998    4.7920 C   0  0  0  1  0  0  0  0  0  0  0  0
   -0.2645    6.0120    4.3108 C   0  0  0  1  0  0  0  0  0  0  0  0
   -1.9421    4.3791    4.7817 O   0  0  0  1  0  0  0  0  0  0  0  0
   -1.4960    0.9582    4.6856 H   0  0  0  1  0  0  0  0  0  0  0  0
   -0.3765   -0.7065    5.7692 H   0  0  0  1  0  0  0  0  0  0  0  0
    1.0551   -0.2932    4.8569 H   0  0  0  1  0  0  0  0  0  0  0  0
   -0.1510   -1.3487    4.1601 H   0  0  0  1  0  0  0  0  0  0  0  0
    0.7872    5.8695    4.4471 H   0  0  0  1  0  0  0  0  0  0  0  0
   -0.6707    6.5088    5.1669 H   0  0  0  1  0  0  0  0  0  0  0  0
   -0.4332    6.6080    3.4384 H   0  0  0  1  0  0  0  0  0  0  0  0
   -1.6223    7.5409    0.7322 F   0  0  0  1  0  0  0  0  0  0  0  0
   -2.2607    6.3591    0.8306 C   0  0  0  1  0  0  0  0  0  0  0  0
   -1.5343    5.1910    1.0018 C   0  0  0  1  0  0  0  0  0  0  0  0
   -2.1890    3.9776    1.0975 C   0  0  0  1  0  0  0  0  0  0  0  0
   -3.5726    3.9293    1.0276 C   0  0  0  1  0  0  0  0  0  0  0  0
   -4.2971    5.0939    0.8569 C   0  0  0  1  0  0  0  0  0  0  0  0
   -3.6402    6.3109    0.7610 C   0  0  0  1  0  0  0  0  0  0  0  0
   -1.3947    2.7231    1.3745 C   0  0  0  1  0  0  0  0  0  0  0  0
   -0.4965    5.2276    1.0583 H   0  0  0  1  0  0  0  0  0  0  0  0
   -4.0655    3.0168    1.1036 H   0  0  0  1  0  0  0  0  0  0  0  0
   -5.3349    5.0572    0.8005 H   0  0  0  1  0  0  0  0  0  0  0  0
   -4.1855    7.1877    0.6365 H   0  0  0  1  0  0  0  0  0  0  0  0
   -1.9753    1.8703    1.0907 H   0  0  0  1  0  0  0  0  0  0  0  0
   -0.4910    2.7465    0.8020 H   0  0  0  1  0  0  0  0  0  0  0  0
  1  4  1  0  0  0  0
  2  4  1  0  0  0  0
  2  5  2  0  0  0  0
  2  6  1  0  0  0  0
  3  4  1  0  0  0  0
  3  7  1  0  0  0  0
  3  8  1  0  0  0  0
  4 26  1  0  0  0  0
  6  9  1  0  0  0  0
  6 12  1  0  0  0  0
  8 10  1  0  0  0  0
  8 11  2  0  0  0  0
  9 13  1  0  0  0  0
  9 14  1  0  0  0  0
  9 15  1  0  0  0  0
 10 16  1  0  0  0  0
 10 17  1  0  0  0  0
 10 18  1  0  0  0  0
 19 20  1  0  0  0  0
 20 21  4  0  0  0  0
 20 25  4  0  0  0  0
 21 22  4  0  0  0  0
 21 27  1  0  0  0  0
 22 23  4  0  0  0  0
 22 26  1  0  0  0  0
 23 24  4  0  0  0  0
 23 28  1  0  0  0  0
 24 25  4  0  0  0  0
 24 29  1  0  0  0  0
 25 30  1  0  0  0  0
 26 31  1  0  0  0  0
 26 32  1  0  0  0  0
M  END
> <BCLConfClusterSize>
1

> <ConfClashScore>
0 

> <ConfOneFourInteractionScore>
-0.979134 

> <ConfScore>
0.0391541 

> <ConfScorePBest>
0.00384653 

> <ConfTolerance>
0.607187 

> <RosettaParamsInstructions>
M  ROOT 3
M  POLY_N_BB 3
M  POLY_CA_BB 4
M  POLY_C_BB 2
M  POLY_O_BB 5
M  POLY_IGNORE 9 10 11 12 13 14 15 16 17 18 
M  POLY_UPPER 6
M  POLY_LOWER 8
M  POLY_CHG 0
M  POLY_PROPERTIES ALPHA_AA L_AA PROTEIN AROMATIC POLYMER 
M  END

$$$$



 32 32  0  0  0  0  0  0  0  0999 V2000
   -1.6475    1.9452   -0.6295 H   0  0  0  1  0  0  0  0  0  0  0  0
   -0.7272    0.4578    0.5434 C   0  0  0  1  0  0  0  0  0  0  0  0
   -3.1138    1.0999    0.5448 N   0  0  0  1  0  0  0  0  0  0  0  0
   -1.7479    1.5698    0.3675 C   0  0  0  1  0  0  0  0  0  0  0  0
   -0.5973   -0.0990    1.6321 O   0  0  0  1  0  0  0  0  0  0  0  0
    0.0687    0.1875   -0.5024 N   0  0  0  1  0  0  0  0  0  0  0  0
   -3.4154    0.8510    1.4434 H   0  0  0  1  0  0  0  0  0  0  0  0
   -3.9781    0.9953   -0.4834 C   0  0  0  1  0  0  0  0  0  0  0  0
    1.1635   -0.7678   -0.4197 C   0  0  0  1  0  0  0  0  0  0  0  0
   -5.3217    0.4108   -0.0931 C   0  0  0  1  0  0  0  0  0  0  0  0
   -3.7333    1.3324   -1.6410 O   0  0  0  1  0  0  0  0  0  0  0  0
   -0.0928    0.6494   -1.3515 H   0  0  0  1  0  0  0  0  0  0  0  0
    0.9170   -1.5333    0.2860 H   0  0  0  1  0  0  0  0  0  0  0  0
    2.0528   -0.2641   -0.1030 H   0  0  0  1  0  0  0  0  0  0  0  0
    1.3257   -1.2082   -1.3813 H   0  0  0  1  0  0  0  0  0  0  0  0
   -5.3099   -0.6476   -0.2500 H   0  0  0  1  0  0  0  0  0  0  0  0
   -6.0901    0.8515   -0.6933 H   0  0  0  1  0  0  0  0  0  0  0  0
   -5.5132    0.6158    0.9395 H   0  0  0  1  0  0  0  0  0  0  0  0
   -1.6537    7.5575    0.7223 F   0  0  0  1  0  0  0  0  0  0  0  0
   -2.2545    6.3571    0.8321 C   0  0  0  1  0  0  0  0  0  0  0  0
   -1.5311    5.1894    1.0180 C   0  0  0  1  0  0  0  0  0  0  0  0
   -2.1883    3.9779    1.1203 C   0  0  0  1  0  0  0  0  0  0  0  0
   -3.5715    3.9312    1.0424 C   0  0  0  1  0  0  0  0  0  0  0  0
   -4.2931    5.0954    0.8571 C   0  0  0  1  0  0  0  0  0  0  0  0
   -3.6337    6.3104    0.7545 C   0  0  0  1  0  0  0  0  0  0  0  0
   -1.4001    2.7045    1.3170 C   0  0  0  1  0  0  0  0  0  0  0  0
   -0.4935    5.2249    1.0805 H   0  0  0  1  0  0  0  0  0  0  0  0
   -4.0664    3.0201    1.1234 H   0  0  0  1  0  0  0  0  0  0  0  0
   -5.3306    5.0598    0.7946 H   0  0  0  1  0  0  0  0  0  0  0  0
   -4.1768    7.1869    0.6190 H   0  0  0  1  0  0  0  0  0  0  0  0
   -0.3631    2.9352    1.1898 H   0  0  0  1  0  0  0  0  0  0  0  0
   -1.5699    2.3623    2.3165 H   0  0  0  1  0  0  0  0  0  0  0  0
  1  4  1  0  0  0  0
  2  4  1  0  0  0  0
  2  5  2  0  0  0  0
  2  6  1  0  0  0  0
  3  4  1  0  0  0  0
  3  7  1  0  0  0  0
  3  8  1  0  0  0  0
  4 26  1  0  0  0  0
  6  9  1  0  0  0  0
  6 12  1  0  0  0  0
  8 10  1  0  0  0  0
  8 11  2  0  0  0  0
  9 13  1  0  0  0  0
  9 14  1  0  0  0  0
  9 15  1  0  0  0  0
 10 16  1  0  0  0  0
 10 17  1  0  0  0  0
 10 18  1  0  0  0  0
 19 20  1  0  0  0  0
 20 21  4  0  0  0  0
 20 25  4  0  0  0  0
 21 22  4  0  0  0  0
 21 27  1  0  0  0  0
 22 23  4  0  0  0  0
 22 26  1  0  0  0  0
 23 24  4  0  0  0  0
 23 28  1  0  0  0  0
 24 25  4  0  0  0  0
 24 29  1  0  0  0  0
 25 30  1  0  0  0  0
 26 31  1  0  0  0  0
 26 32  1  0  0  0  0
M  END
> <BCLConfClusterSize>
1

> <ConfClashScore>
0 

> <ConfOneFourInteractionScore>
-0.975259 

> <ConfScore>
0.0392898 

> <ConfScorePBest>
0.00381805 

> <ConfTolerance>
0.606818 

> <RosettaParamsInstructions>
M  ROOT 3
M  POLY_N_BB 3
M  POLY_CA_BB 4
M  POLY_C_BB 2
M  POLY_O_BB 5
M  POLY_IGNORE 9 10 11 12 13 14 15 16 17 18 
M  POLY_UPPER 6
M  POLY_LOWER 8
M  POLY_CHG 0
M  POLY_PROPERTIES ALPHA_AA L_AA PROTEIN AROMATIC POLYMER 
M  END

$$$$



 32 32  0  0  0  0  0  0  0  0999 V2000
   -0.4560    2.6196   -0.5779 H   0  0  0  1  0  0  0  0  0  0  0  0
   -0.3156    0.7013    0.2586 C   0  0  0  1  0  0  0  0  0  0  0  0
   -2.3030    1.7412   -0.7508 N   0  0  0  1  0  0  0  0  0  0  0  0
   -1.0864    1.9899    0.0145 C   0  0  0  1  0  0  0  0  0  0  0  0
    0.1671    0.4451    1.3609 O   0  0  0  1  0  0  0  0  0  0  0  0
   -0.2030   -0.1199   -0.7974 N   0  0  0  1  0  0  0  0  0  0  0  0
   -2.4274    2.2049   -1.6052 H   0  0  0  1  0  0  0  0  0  0  0  0
   -3.2630    0.8951   -0.3234 C   0  0  0  1  0  0  0  0  0  0  0  0
    0.5690   -1.3525   -0.7449 C   0  0  0  1  0  0  0  0  0  0  0  0
   -4.5488    0.8134   -1.1229 C   0  0  0  1  0  0  0  0  0  0  0  0
   -3.1024    0.2089    0.6851 O   0  0  0  1  0  0  0  0  0  0  0  0
   -0.6565    0.1188   -1.6327 H   0  0  0  1  0  0  0  0  0  0  0  0
    0.3962   -1.8426    0.1905 H   0  0  0  1  0  0  0  0  0  0  0  0
    1.6102   -1.1252   -0.8412 H   0  0  0  1  0  0  0  0  0  0  0  0
    0.2683   -1.9958   -1.5453 H   0  0  0  1  0  0  0  0  0  0  0  0
   -4.4266    1.3334   -2.0500 H   0  0  0  1  0  0  0  0  0  0  0  0
   -5.3444    1.2614   -0.5651 H   0  0  0  1  0  0  0  0  0  0  0  0
   -4.7827   -0.2124   -1.3178 H   0  0  0  1  0  0  0  0  0  0  0  0
   -1.5886    7.5181    0.7310 F   0  0  0  1  0  0  0  0  0  0  0  0
   -2.2671    6.3589    0.8311 C   0  0  0  1  0  0  0  0  0  0  0  0
   -1.5418    5.1924    1.0170 C   0  0  0  1  0  0  0  0  0  0  0  0
   -2.1972    3.9799    1.1195 C   0  0  0  1  0  0  0  0  0  0  0  0
   -3.5803    3.9310    1.0419 C   0  0  0  1  0  0  0  0  0  0  0  0
   -4.3037    5.0941    0.8565 C   0  0  0  1  0  0  0  0  0  0  0  0
   -3.6462    6.3101    0.7537 C   0  0  0  1  0  0  0  0  0  0  0  0
   -1.3583    2.7392    1.3155 C   0  0  0  1  0  0  0  0  0  0  0  0
   -0.5044    5.2295    1.0793 H   0  0  0  1  0  0  0  0  0  0  0  0
   -4.0737    3.0192    1.1230 H   0  0  0  1  0  0  0  0  0  0  0  0
   -5.3412    5.0569    0.7942 H   0  0  0  1  0  0  0  0  0  0  0  0
   -4.1907    7.1858    0.6183 H   0  0  0  1  0  0  0  0  0  0  0  0
   -0.4214    3.0260    1.7455 H   0  0  0  1  0  0  0  0  0  0  0  0
   -1.8727    2.0826    1.9856 H   0  0  0  1  0  0  0  0  0  0  0  0
  1  4  1  0  0  0  0
  2  4  1  0  0  0  0
  2  5  2  0  0  0  0
  2  6  1  0  0  0  0
  3  4  1  0  0  0  0
  3  7  1  0  0  0  0
  3  8  1  0  0  0  0
  4 26  1  0  0  0  0
  6  9  1  0  0  0  0
  6 12  1  0  0  0  0
  8 10  1  0  0  0  0
  8 11  2  0  0  0  0
  9 13  1  0  0  0  0
  9 14  1  0  0  0  0
  9 15  1  0  0  0  0
 10 16  1  0  0  0  0
 10 17  1  0  0  0  0
 10 18  1  0  0  0  0
 19 20  1  0  0  0  0
 20 21  4  0  0  0  0
 20 25  4  0  0  0  0
 21 22  4  0  0  0  0
 21 27  1  0  0  0  0
 22 23  4  0  0  0  0
 22 26  1  0  0  0  0
 23 24  4  0  0  0  0
 23 28  1  0  0  0  0
 24 25  4  0  0  0  0
 24 29  1  0  0  0  0
 25 30  1  0  0  0  0
 26 31  1  0  0  0  0
 26 32  1  0  0  0  0
M  END
> <BCLConfClusterSize>
1

> <ConfClashScore>
0 

> <ConfOneFourInteractionScore>
-0.976539 

> <ConfScore>
0.0399275 

> <ConfScorePBest>
0.00378957 

> <ConfTolerance>
0.350809 

> <RosettaParamsInstructions>
M  ROOT 3
M  POLY_N_BB 3
M  POLY_CA_BB 4
M  POLY_C_BB 2
M  POLY_O_BB 5
M  POLY_IGNORE 9 10 11 12 13 14 15 16 17 18 
M  POLY_UPPER 6
M  POLY_LOWER 8
M  POLY_CHG 0
M  POLY_PROPERTIES ALPHA_AA L_AA PROTEIN AROMATIC POLYMER 
M  END

$$$$



 32 32  0  0  0  0  0  0  0  0999 V2000
   -0.4856    1.5351    2.8022 H   0  0  0  1  0  0  0  0  0  0  0  0
   -0.0364    3.5384    3.2519 C   0  0  0  1  0  0  0  0  0  0  0  0
   -2.2255    2.3374    3.5665 N   0  0  0  1  0  0  0  0  0  0  0  0
   -1.0038    2.4707    2.7683 C   0  0  0  1  0  0  0  0  0  0  0  0
    1.0000    3.8249    2.6830 O   0  0  0  1  0  0  0  0  0  0  0  0
   -0.3837    4.1765    4.3732 N   0  0  0  1  0  0  0  0  0  0  0  0
   -2.9634    2.9521    3.3715 H   0  0  0  1  0  0  0  0  0  0  0  0
   -2.4090    1.4411    4.5402 C   0  0  0  1  0  0  0  0  0  0  0  0
    0.4141    5.2583    4.9309 C   0  0  0  1  0  0  0  0  0  0  0  0
   -3.8215    1.3366    5.0816 C   0  0  0  1  0  0  0  0  0  0  0  0
   -1.5022    0.7368    4.9820 O   0  0  0  1  0  0  0  0  0  0  0  0
   -1.2042    3.9067    4.8362 H   0  0  0  1  0  0  0  0  0  0  0  0
   -0.2123    5.8998    5.5148 H   0  0  0  1  0  0  0  0  0  0  0  0
    0.8576    5.8206    4.1358 H   0  0  0  1  0  0  0  0  0  0  0  0
    1.1837    4.8500    5.5520 H   0  0  0  1  0  0  0  0  0  0  0  0
   -4.4365    0.8166    4.3771 H   0  0  0  1  0  0  0  0  0  0  0  0
   -4.2154    2.3185    5.2419 H   0  0  0  1  0  0  0  0  0  0  0  0
   -3.8095    0.8010    6.0078 H   0  0  0  1  0  0  0  0  0  0  0  0
   -1.6228    7.5417    0.7261 F   0  0  0  1  0  0  0  0  0  0  0  0
   -2.2608    6.3603    0.8314 C   0  0  0  1  0  0  0  0  0  0  0  0
   -1.5345    5.1943    1.0172 C   0  0  0  1  0  0  0  0  0  0  0  0
   -2.1888    3.9813    1.1199 C   0  0  0  1  0  0  0  0  0  0  0  0
   -3.5719    3.9313    1.0424 C   0  0  0  1  0  0  0  0  0  0  0  0
   -4.2963    5.0937    0.8570 C   0  0  0  1  0  0  0  0  0  0  0  0
   -3.6399    6.3103    0.7541 C   0  0  0  1  0  0  0  0  0  0  0  0
   -1.3975    2.7098    1.3166 C   0  0  0  1  0  0  0  0  0  0  0  0
   -0.4971    5.2324    1.0794 H   0  0  0  1  0  0  0  0  0  0  0  0
   -4.0646    3.0190    1.1236 H   0  0  0  1  0  0  0  0  0  0  0  0
   -5.3338    5.0556    0.7949 H   0  0  0  1  0  0  0  0  0  0  0  0
   -4.1852    7.1855    0.6187 H   0  0  0  1  0  0  0  0  0  0  0  0
   -1.9916    1.8842    0.9844 H   0  0  0  1  0  0  0  0  0  0  0  0
   -0.5064    2.7687    0.7272 H   0  0  0  1  0  0  0  0  0  0  0  0
  1  4  1  0  0  0  0
  2  4  1  0  0  0  0
  2  5  2  0  0  0  0
  2  6  1  0  0  0  0
  3  4  1  0  0  0  0
  3  7  1  0  0  0  0
  3  8  1  0  0  0  0
  4 26  1  0  0  0  0
  6  9  1  0  0  0  0
  6 12  1  0  0  0  0
  8 10  1  0  0  0  0
  8 11  2  0  0  0  0
  9 13  1  0  0  0  0
  9 14  1  0  0  0  0
  9 15  1  0  0  0  0
 10 16  1  0  0  0  0
 10 17  1  0  0  0  0
 10 18  1  0  0  0  0
 19 20  1  0  0  0  0
 20 21  4  0  0  0  0
 20 25  4  0  0  0  0
 21 22  4  0  0  0  0
 21 27  1  0  0  0  0
 22 23  4  0  0  0  0
 22 26  1  0  0  0  0
 23 24  4  0  0  0  0
 23 28  1  0  0  0  0
 24 25  4  0  0  0  0
 24 29  1  0  0  0  0
 25 30  1  0  0  0  0
 26 31  1  0  0  0  0
 26 32  1  0  0  0  0
M  END
> <BCLConfClusterSize>
1

> <ConfClashScore>
0 

> <ConfOneFourInteractionScore>
-0.950605 

> <ConfScore>
0.0444507 

> <ConfScorePBest>
0.00376109 

> <ConfTolerance>
0.448936 

> <RosettaParamsInstructions>
M  ROOT 3
M  POLY_N_BB 3
M  POLY_CA_BB 4
M  POLY_C_BB 2
M  POLY_O_BB 5
M  POLY_IGNORE 9 10 11 12 13 14 15 16 17 18 
M  POLY_UPPER 6
M  POLY_LOWER 8
M  POLY_CHG 0
M  POLY_PROPERTIES ALPHA_AA L_AA PROTEIN AROMATIC POLYMER 
M  END

$$$$



 32 32  0  0  0  0  0  0  0  0999 V2000
   -0.3892    1.1915    0.2474 H   0  0  0  1  0  0  0  0  0  0  0  0
   -2.0172    1.8071   -0.9534 C   0  0  0  1  0  0  0  0  0  0  0  0
    0.0689    3.0270   -0.5927 N   0  0  0  1  0  0  0  0  0  0  0  0
   -0.8871    2.1106    0.0187 C   0  0  0  1  0  0  0  0  0  0  0  0
   -2.9777    1.1194   -0.6096 O   0  0  0  1  0  0  0  0  0  0  0  0
   -1.9345    2.3116   -2.1947 N   0  0  0  1  0  0  0  0  0  0  0  0
   -0.0337    3.9939   -0.4704 H   0  0  0  1  0  0  0  0  0  0  0  0
    1.1164    2.5358   -1.3421 C   0  0  0  1  0  0  0  0  0  0  0  0
   -2.9445    2.0495   -3.2092 C   0  0  0  1  0  0  0  0  0  0  0  0
    2.1029    3.5531   -1.8367 C   0  0  0  1  0  0  0  0  0  0  0  0
    1.1995    1.3430   -1.5661 O   0  0  0  1  0  0  0  0  0  0  0  0
   -1.1674    2.8759   -2.4257 H   0  0  0  1  0  0  0  0  0  0  0  0
   -3.9132    2.0406   -2.7549 H   0  0  0  1  0  0  0  0  0  0  0  0
   -2.7552    1.0995   -3.6635 H   0  0  0  1  0  0  0  0  0  0  0  0
   -2.9077    2.8158   -3.9551 H   0  0  0  1  0  0  0  0  0  0  0  0
    3.0195    3.4554   -1.2934 H   0  0  0  1  0  0  0  0  0  0  0  0
    1.7051    4.5356   -1.6909 H   0  0  0  1  0  0  0  0  0  0  0  0
    2.2874    3.3934   -2.8785 H   0  0  0  1  0  0  0  0  0  0  0  0
   -1.6268    7.5487    0.7250 F   0  0  0  1  0  0  0  0  0  0  0  0
   -2.2607    6.3650    0.8308 C   0  0  0  1  0  0  0  0  0  0  0  0
   -1.5303    5.2017    1.0166 C   0  0  0  1  0  0  0  0  0  0  0  0
   -2.1803    3.9864    1.1198 C   0  0  0  1  0  0  0  0  0  0  0  0
   -3.5633    3.9316    1.0429 C   0  0  0  1  0  0  0  0  0  0  0  0
   -4.2918    5.0914    0.8576 C   0  0  0  1  0  0  0  0  0  0  0  0
   -3.6396    6.3102    0.7541 C   0  0  0  1  0  0  0  0  0  0  0  0
   -1.4379    2.6859    1.3169 C   0  0  0  1  0  0  0  0  0  0  0  0
   -0.4929    5.2433    1.0783 H   0  0  0  1  0  0  0  0  0  0  0  0
   -4.0527    3.0176    1.1246 H   0  0  0  1  0  0  0  0  0  0  0  0
   -5.3291    5.0497    0.7959 H   0  0  0  1  0  0  0  0  0  0  0  0
   -4.1880    7.1835    0.6187 H   0  0  0  1  0  0  0  0  0  0  0  0
   -0.6213    2.8580    1.9866 H   0  0  0  1  0  0  0  0  0  0  0  0
   -2.1090    1.9725    1.7478 H   0  0  0  1  0  0  0  0  0  0  0  0
  1  4  1  0  0  0  0
  2  4  1  0  0  0  0
  2  5  2  0  0  0  0
  2  6  1  0  0  0  0
  3  4  1  0  0  0  0
  3  7  1  0  0  0  0
  3  8  1  0  0  0  0
  4 26  1  0  0  0  0
  6  9  1  0  0  0  0
  6 12  1  0  0  0  0
  8 10  1  0  0  0  0
  8 11  2  0  0  0  0
  9 13  1  0  0  0  0
  9 14  1  0  0  0  0
  9 15  1  0  0  0  0
 10 16  1  0  0  0  0
 10 17  1  0  0  0  0
 10 18  1  0  0  0  0
 19 20  1  0  0  0  0
 20 21  4  0  0  0  0
 20 25  4  0  0  0  0
 21 22  4  0  0  0  0
 21 27  1  0  0  0  0
 22 23  4  0  0  0  0
 22 26  1  0  0  0  0
 23 24  4  0  0  0  0
 23 28  1  0  0  0  0
 24 25  4  0  0  0  0
 24 29  1  0  0  0  0
 25 30  1  0  0  0  0
 26 31  1  0  0  0  0
 26 32  1  0  0  0  0
M  END
> <BCLConfClusterSize>
1

> <ConfClashScore>
0 

> <ConfOneFourInteractionScore>
-0.931937 

> <ConfScore>
0.0460221 

> <ConfScorePBest>
0.00373261 

> <ConfTolerance>
0.496859 

> <RosettaParamsInstructions>
M  ROOT 3
M  POLY_N_BB 3
M  POLY_CA_BB 4
M  POLY_C_BB 2
M  POLY_O_BB 5
M  POLY_IGNORE 9 10 11 12 13 14 15 16 17 18 
M  POLY_UPPER 6
M  POLY_LOWER 8
M  POLY_CHG 0
M  POLY_PROPERTIES ALPHA_AA L_AA PROTEIN AROMATIC POLYMER 
M  END

$$$$



 32 32  0  0  0  0  0  0  0  0999 V2000
   -0.0897    1.4088    0.2749 H   0  0  0  1  0  0  0  0  0  0  0  0
   -1.1436    2.5123   -1.1966 C   0  0  0  1  0  0  0  0  0  0  0  0
    0.6657    3.3368    0.1365 N   0  0  0  1  0  0  0  0  0  0  0  0
   -0.4576    2.4066    0.1571 C   0  0  0  1  0  0  0  0  0  0  0  0
   -1.6247    1.5268   -1.7545 O   0  0  0  1  0  0  0  0  0  0  0  0
   -1.1638    3.7584   -1.6955 N   0  0  0  1  0  0  0  0  0  0  0  0
    0.6986    4.0535    0.8041 H   0  0  0  1  0  0  0  0  0  0  0  0
    1.6514    3.2457   -0.7608 C   0  0  0  1  0  0  0  0  0  0  0  0
   -1.7133    4.0064   -3.0200 C   0  0  0  1  0  0  0  0  0  0  0  0
    2.7344    4.3184   -0.6327 C   0  0  0  1  0  0  0  0  0  0  0  0
    1.7611    2.3406   -1.5870 O   0  0  0  1  0  0  0  0  0  0  0  0
   -0.8077    4.5026   -1.1667 H   0  0  0  1  0  0  0  0  0  0  0  0
   -2.7172    3.6387   -3.0648 H   0  0  0  1  0  0  0  0  0  0  0  0
   -1.1169    3.5046   -3.7531 H   0  0  0  1  0  0  0  0  0  0  0  0
   -1.7100    5.0583   -3.2161 H   0  0  0  1  0  0  0  0  0  0  0  0
    2.4543    5.0200    0.1251 H   0  0  0  1  0  0  0  0  0  0  0  0
    2.8437    4.8280   -1.5672 H   0  0  0  1  0  0  0  0  0  0  0  0
    3.6627    3.8578   -0.3664 H   0  0  0  1  0  0  0  0  0  0  0  0
   -1.6228    7.5417    0.7261 F   0  0  0  1  0  0  0  0  0  0  0  0
   -2.2608    6.3603    0.8314 C   0  0  0  1  0  0  0  0  0  0  0  0
   -1.5345    5.1943    1.0172 C   0  0  0  1  0  0  0  0  0  0  0  0
   -2.1888    3.9813    1.1199 C   0  0  0  1  0  0  0  0  0  0  0  0
   -3.5719    3.9313    1.0424 C   0  0  0  1  0  0  0  0  0  0  0  0
   -4.2963    5.0937    0.8570 C   0  0  0  1  0  0  0  0  0  0  0  0
   -3.6399    6.3103    0.7541 C   0  0  0  1  0  0  0  0  0  0  0  0
   -1.3975    2.7098    1.3166 C   0  0  0  1  0  0  0  0  0  0  0  0
   -0.4971    5.2324    1.0794 H   0  0  0  1  0  0  0  0  0  0  0  0
   -4.0646    3.0190    1.1236 H   0  0  0  1  0  0  0  0  0  0  0  0
   -5.3338    5.0556    0.7949 H   0  0  0  1  0  0  0  0  0  0  0  0
   -4.1852    7.1855    0.6187 H   0  0  0  1  0  0  0  0  0  0  0  0
   -0.8165    2.8050    2.2100 H   0  0  0  1  0  0  0  0  0  0  0  0
   -2.0830    1.8949    1.4214 H   0  0  0  1  0  0  0  0  0  0  0  0
  1  4  1  0  0  0  0
  2  4  1  0  0  0  0
  2  5  2  0  0  0  0
  2  6  1  0  0  0  0
  3  4  1  0  0  0  0
  3  7  1  0  0  0  0
  3  8  1  0  0  0  0
  4 26  1  0  0  0  0
  6  9  1  0  0  0  0
  6 12  1  0  0  0  0
  8 10  1  0  0  0  0
  8 11  2  0  0  0  0
  9 13  1  0  0  0  0
  9 14  1  0  0  0  0
  9 15  1  0  0  0  0
 10 16  1  0  0  0  0
 10 17  1  0  0  0  0
 10 18  1  0  0  0  0
 19 20  1  0  0  0  0
 20 21  4  0  0  0  0
 20 25  4  0  0  0  0
 21 22  4  0  0  0  0
 21 27  1  0  0  0  0
 22 23  4  0  0  0  0
 22 26  1  0  0  0  0
 23 24  4  0  0  0  0
 23 28  1  0  0  0  0
 24 25  4  0  0  0  0
 24 29  1  0  0  0  0
 25 30  1  0  0  0  0
 26 31  1  0  0  0  0
 26 32  1  0  0  0  0
M  END
> <BCLConfClusterSize>
1

> <ConfClashScore>
0 

> <ConfOneFourInteractionScore>
-0.957074 

> <ConfScore>
0.0474241 

> <ConfScorePBest>
0.00370413 

> <ConfTolerance>
0.807579 

> <RosettaParamsInstructions>
M  ROOT 3
M  POLY_N_BB 3
M  POLY_CA_BB 4
M  POLY_C_BB 2
M  POLY_O_BB 5
M  POLY_IGNORE 9 10 11 12 13 14 15 16 17 18 
M  POLY_UPPER 6
M  POLY_LOWER 8
M  POLY_CHG 0
M  POLY_PROPERTIES ALPHA_AA L_AA PROTEIN AROMATIC POLYMER 
M  END

$$$$



 32 32  0  0  0  0  0  0  0  0999 V2000
   -2.3417    1.9020    3.0330 H   0  0  0  1  0  0  0  0  0  0  0  0
   -0.4058    1.0660    2.8987 C   0  0  0  1  0  0  0  0  0  0  0  0
   -1.0135    3.3665    3.6267 N   0  0  0  1  0  0  0  0  0  0  0  0
   -1.3621    2.2437    2.7711 C   0  0  0  1  0  0  0  0  0  0  0  0
   -0.1242    0.3642    1.9282 O   0  0  0  1  0  0  0  0  0  0  0  0
    0.0979    0.8540    4.1248 N   0  0  0  1  0  0  0  0  0  0  0  0
   -1.6991    3.7408    4.2186 H   0  0  0  1  0  0  0  0  0  0  0  0
    0.2089    3.9057    3.6340 C   0  0  0  1  0  0  0  0  0  0  0  0
    0.9839   -0.2737    4.3652 C   0  0  0  1  0  0  0  0  0  0  0  0
    0.3778    5.1433    4.4936 C   0  0  0  1  0  0  0  0  0  0  0  0
    1.1479    3.4425    2.9920 O   0  0  0  1  0  0  0  0  0  0  0  0
   -0.1320    1.4605    4.8595 H   0  0  0  1  0  0  0  0  0  0  0  0
    0.6380   -1.1234    3.8145 H   0  0  0  1  0  0  0  0  0  0  0  0
    0.9911   -0.5049    5.4099 H   0  0  0  1  0  0  0  0  0  0  0  0
    1.9745   -0.0226    4.0481 H   0  0  0  1  0  0  0  0  0  0  0  0
   -0.5760    5.4505    4.8689 H   0  0  0  1  0  0  0  0  0  0  0  0
    0.7999    5.9310    3.9052 H   0  0  0  1  0  0  0  0  0  0  0  0
    1.0288    4.9217    5.3134 H   0  0  0  1  0  0  0  0  0  0  0  0
   -1.6537    7.5575    0.7223 F   0  0  0  1  0  0  0  0  0  0  0  0
   -2.2545    6.3571    0.8321 C   0  0  0  1  0  0  0  0  0  0  0  0
   -1.5311    5.1894    1.0180 C   0  0  0  1  0  0  0  0  0  0  0  0
   -2.1883    3.9779    1.1203 C   0  0  0  1  0  0  0  0  0  0  0  0
   -3.5715    3.9312    1.0424 C   0  0  0  1  0  0  0  0  0  0  0  0
   -4.2931    5.0954    0.8571 C   0  0  0  1  0  0  0  0  0  0  0  0
   -3.6337    6.3104    0.7545 C   0  0  0  1  0  0  0  0  0  0  0  0
   -1.4001    2.7045    1.3170 C   0  0  0  1  0  0  0  0  0  0  0  0
   -0.4935    5.2249    1.0805 H   0  0  0  1  0  0  0  0  0  0  0  0
   -4.0664    3.0201    1.1234 H   0  0  0  1  0  0  0  0  0  0  0  0
   -5.3306    5.0598    0.7946 H   0  0  0  1  0  0  0  0  0  0  0  0
   -4.1768    7.1869    0.6190 H   0  0  0  1  0  0  0  0  0  0  0  0
   -1.8476    1.9324    0.7266 H   0  0  0  1  0  0  0  0  0  0  0  0
   -0.3963    2.8707    0.9861 H   0  0  0  1  0  0  0  0  0  0  0  0
  1  4  1  0  0  0  0
  2  4  1  0  0  0  0
  2  5  2  0  0  0  0
  2  6  1  0  0  0  0
  3  4  1  0  0  0  0
  3  7  1  0  0  0  0
  3  8  1  0  0  0  0
  4 26  1  0  0  0  0
  6  9  1  0  0  0  0
  6 12  1  0  0  0  0
  8 10  1  0  0  0  0
  8 11  2  0  0  0  0
  9 13  1  0  0  0  0
  9 14  1  0  0  0  0
  9 15  1  0  0  0  0
 10 16  1  0  0  0  0
 10 17  1  0  0  0  0
 10 18  1  0  0  0  0
 19 20  1  0  0  0  0
 20 21  4  0  0  0  0
 20 25  4  0  0  0  0
 21 22  4  0  0  0  0
 21 27  1  0  0  0  0
 22 23  4  0  0  0  0
 22 26  1  0  0  0  0
 23 24  4  0  0  0  0
 23 28  1  0  0  0  0
 24 25  4  0  0  0  0
 24 29  1  0  0  0  0
 25 30  1  0  0  0  0
 26 31  1  0  0  0  0
 26 32  1  0  0  0  0
M  END
> <BCLConfClusterSize>
1

> <ConfClashScore>
0 

> <ConfOneFourInteractionScore>
-0.957364 

> <ConfScore>
0.0530734 

> <ConfScorePBest>
0.00367564 

> <ConfTolerance>
0.42033 

> <RosettaParamsInstructions>
M  ROOT 3
M  POLY_N_BB 3
M  POLY_CA_BB 4
M  POLY_C_BB 2
M  POLY_O_BB 5
M  POLY_IGNORE 9 10 11 12 13 14 15 16 17 18 
M  POLY_UPPER 6
M  POLY_LOWER 8
M  POLY_CHG 0
M  POLY_PROPERTIES ALPHA_AA L_AA PROTEIN AROMATIC POLYMER 
M  END

$$$$



 32 32  0  0  0  0  0  0  0  0999 V2000
   -1.0695    1.1708    2.7340 H   0  0  0  1  0  0  0  0  0  0  0  0
   -1.7488    2.8521    3.8140 C   0  0  0  1  0  0  0  0  0  0  0  0
   -3.0994    1.3723    2.3996 N   0  0  0  1  0  0  0  0  0  0  0  0
   -1.7806    1.9573    2.5902 C   0  0  0  1  0  0  0  0  0  0  0  0
   -0.7332    2.9814    4.4775 O   0  0  0  1  0  0  0  0  0  0  0  0
   -2.8986    3.4795    4.1077 N   0  0  0  1  0  0  0  0  0  0  0  0
   -3.4880    1.4596    1.5042 H   0  0  0  1  0  0  0  0  0  0  0  0
   -3.8406    0.7297    3.3067 C   0  0  0  1  0  0  0  0  0  0  0  0
   -2.9826    4.5089    5.1330 C   0  0  0  1  0  0  0  0  0  0  0  0
   -5.2565    0.3795    2.8924 C   0  0  0  1  0  0  0  0  0  0  0  0
   -3.3871    0.3637    4.3899 O   0  0  0  1  0  0  0  0  0  0  0  0
   -3.7097    3.2358    3.6147 H   0  0  0  1  0  0  0  0  0  0  0  0
   -2.5676    4.1377    6.0467 H   0  0  0  1  0  0  0  0  0  0  0  0
   -4.0075    4.7740    5.2888 H   0  0  0  1  0  0  0  0  0  0  0  0
   -2.4345    5.3719    4.8172 H   0  0  0  1  0  0  0  0  0  0  0  0
   -5.8372    1.2748    2.8132 H   0  0  0  1  0  0  0  0  0  0  0  0
   -5.6935   -0.2650    3.6262 H   0  0  0  1  0  0  0  0  0  0  0  0
   -5.2380   -0.1183    1.9454 H   0  0  0  1  0  0  0  0  0  0  0  0
   -1.5924    7.5248    0.7300 F   0  0  0  1  0  0  0  0  0  0  0  0
   -2.2671    6.3635    0.8306 C   0  0  0  1  0  0  0  0  0  0  0  0
   -1.5379    5.1994    1.0164 C   0  0  0  1  0  0  0  0  0  0  0  0
   -2.1893    3.9848    1.1194 C   0  0  0  1  0  0  0  0  0  0  0  0
   -3.5723    3.9314    1.0423 C   0  0  0  1  0  0  0  0  0  0  0  0
   -4.2996    5.0921    0.8570 C   0  0  0  1  0  0  0  0  0  0  0  0
   -3.6461    6.3102    0.7537 C   0  0  0  1  0  0  0  0  0  0  0  0
   -1.3949    2.7152    1.3161 C   0  0  0  1  0  0  0  0  0  0  0  0
   -0.5006    5.2399    1.0783 H   0  0  0  1  0  0  0  0  0  0  0  0
   -4.0627    3.0180    1.1239 H   0  0  0  1  0  0  0  0  0  0  0  0
   -5.3369    5.0515    0.7952 H   0  0  0  1  0  0  0  0  0  0  0  0
   -4.1935    7.1841    0.6183 H   0  0  0  1  0  0  0  0  0  0  0  0
   -1.5622    2.0751    0.4752 H   0  0  0  1  0  0  0  0  0  0  0  0
   -0.3567    2.9683    1.3714 H   0  0  0  1  0  0  0  0  0  0  0  0
  1  4  1  0  0  0  0
  2  4  1  0  0  0  0
  2  5  2  0  0  0  0
  2  6  1  0  0  0  0
  3  4  1  0  0  0  0
  3  7  1  0  0  0  0
  3  8  1  0  0  0  0
  4 26  1  0  0  0  0
  6  9  1  0  0  0  0
  6 12  1  0  0  0  0
  8 10  1  0  0  0  0
  8 11  2  0  0  0  0
  9 13  1  0  0  0  0
  9 14  1  0  0  0  0
  9 15  1  0  0  0  0
 10 16  1  0  0  0  0
 10 17  1  0  0  0  0
 10 18  1  0  0  0  0
 19 20  1  0  0  0  0
 20 21  4  0  0  0  0
 20 25  4  0  0  0  0
 21 22  4  0  0  0  0
 21 27  1  0  0  0  0
 22 23  4  0  0  0  0
 22 26  1  0  0  0  0
 23 24  4  0  0  0  0
 23 28  1  0  0  0  0
 24 25  4  0  0  0  0
 24 29  1  0  0  0  0
 25 30  1  0  0  0  0
 26 31  1  0  0  0  0
 26 32  1  0  0  0  0
M  END
> <BCLConfClusterSize>
1

> <ConfClashScore>
0 

> <ConfOneFourInteractionScore>
-0.957074 

> <ConfScore>
0.0554068 

> <ConfScorePBest>
0.00364716 

> <ConfTolerance>
0.698853 

> <RosettaParamsInstructions>
M  ROOT 3
M  POLY_N_BB 3
M  POLY_CA_BB 4
M  POLY_C_BB 2
M  POLY_O_BB 5
M  POLY_IGNORE 9 10 11 12 13 14 15 16 17 18 
M  POLY_UPPER 6
M  POLY_LOWER 8
M  POLY_CHG 0
M  POLY_PROPERTIES ALPHA_AA L_AA PROTEIN AROMATIC POLYMER 
M  END

$$$$



 32 32  0  0  0  0  0  0  0  0999 V2000
   -2.5220    1.6998   -0.0982 H   0  0  0  1  0  0  0  0  0  0  0  0
   -0.5901    2.0187   -0.8937 C   0  0  0  1  0  0  0  0  0  0  0  0
   -1.2190    0.3495    0.7703 N   0  0  0  1  0  0  0  0  0  0  0  0
   -1.5153    1.6812    0.2636 C   0  0  0  1  0  0  0  0  0  0  0  0
   -0.9894    2.6864   -1.8467 O   0  0  0  1  0  0  0  0  0  0  0  0
    0.6795    1.5647   -0.8440 N   0  0  0  1  0  0  0  0  0  0  0  0
   -0.8087    0.2426    1.6538 H   0  0  0  1  0  0  0  0  0  0  0  0
   -1.5046   -0.7259    0.0346 C   0  0  0  1  0  0  0  0  0  0  0  0
    1.5799    1.7884   -1.9652 C   0  0  0  1  0  0  0  0  0  0  0  0
   -1.1156   -2.0674    0.6248 C   0  0  0  1  0  0  0  0  0  0  0  0
   -2.1222   -0.6543   -1.0268 O   0  0  0  1  0  0  0  0  0  0  0  0
    0.9960    1.0833   -0.0512 H   0  0  0  1  0  0  0  0  0  0  0  0
    1.1628    2.5281   -2.6162 H   0  0  0  1  0  0  0  0  0  0  0  0
    1.7124    0.8735   -2.5040 H   0  0  0  1  0  0  0  0  0  0  0  0
    2.5265    2.1281   -1.5999 H   0  0  0  1  0  0  0  0  0  0  0  0
   -0.0495   -2.1348    0.6865 H   0  0  0  1  0  0  0  0  0  0  0  0
   -1.4869   -2.8527    0.0001 H   0  0  0  1  0  0  0  0  0  0  0  0
   -1.5359   -2.1611    1.6043 H   0  0  0  1  0  0  0  0  0  0  0  0
   -1.5919    7.5240    0.7358 F   0  0  0  1  0  0  0  0  0  0  0  0
   -2.2670    6.3624    0.8299 C   0  0  0  1  0  0  0  0  0  0  0  0
   -1.5377    5.1960    1.0011 C   0  0  0  1  0  0  0  0  0  0  0  0
   -2.1895    3.9811    1.0971 C   0  0  0  1  0  0  0  0  0  0  0  0
   -3.5729    3.9295    1.0276 C   0  0  0  1  0  0  0  0  0  0  0  0
   -4.3003    5.0923    0.8569 C   0  0  0  1  0  0  0  0  0  0  0  0
   -3.6464    6.3108    0.7606 C   0  0  0  1  0  0  0  0  0  0  0  0
   -1.3920    2.7285    1.3740 C   0  0  0  1  0  0  0  0  0  0  0  0
   -0.5000    5.2352    1.0573 H   0  0  0  1  0  0  0  0  0  0  0  0
   -4.0637    3.0157    1.1038 H   0  0  0  1  0  0  0  0  0  0  0  0
   -5.3380    5.0531    0.8007 H   0  0  0  1  0  0  0  0  0  0  0  0
   -4.1938    7.1863    0.6363 H   0  0  0  1  0  0  0  0  0  0  0  0
   -0.3613    2.9967    1.4764 H   0  0  0  1  0  0  0  0  0  0  0  0
   -1.7415    2.2976    2.2889 H   0  0  0  1  0  0  0  0  0  0  0  0
  1  4  1  0  0  0  0
  2  4  1  0  0  0  0
  2  5  2  0  0  0  0
  2  6  1  0  0  0  0
  3  4  1  0  0  0  0
  3  7  1  0  0  0  0
  3  8  1  0  0  0  0
  4 26  1  0  0  0  0
  6  9  1  0  0  0  0
  6 12  1  0  0  0  0
  8 10  1  0  0  0  0
  8 11  2  0  0  0  0
  9 13  1  0  0  0  0
  9 14  1  0  0  0  0
  9 15  1  0  0  0  0
 10 16  1  0  0  0  0
 10 17  1  0  0  0  0
 10 18  1  0  0  0  0
 19 20  1  0  0  0  0
 20 21  4  0  0  0  0
 20 25  4  0  0  0  0
 21 22  4  0  0  0  0
 21 27  1  0  0  0  0
 22 23  4  0  0  0  0
 22 26  1  0  0  0  0
 23 24  4  0  0  0  0
 23 28  1  0  0  0  0
 24 25  4  0  0  0  0
 24 29  1  0  0  0  0
 25 30  1  0  0  0  0
 26 31  1  0  0  0  0
 26 32  1  0  0  0  0
M  END
> <BCLConfClusterSize>
1

> <ConfClashScore>
0 

> <ConfOneFourInteractionScore>
-0.940901 

> <ConfScore>
0.065266 

> <ConfScorePBest>
0.00361868 

> <ConfTolerance>
0.652049 

> <RosettaParamsInstructions>
M  ROOT 3
M  POLY_N_BB 3
M  POLY_CA_BB 4
M  POLY_C_BB 2
M  POLY_O_BB 5
M  POLY_IGNORE 9 10 11 12 13 14 15 16 17 18 
M  POLY_UPPER 6
M  POLY_LOWER 8
M  POLY_CHG 0
M  POLY_PROPERTIES ALPHA_AA L_AA PROTEIN AROMATIC POLYMER 
M  END

$$$$



 32 32  0  0  0  0  0  0  0  0999 V2000
   -0.7997    1.3379    2.8147 H   0  0  0  1  0  0  0  0  0  0  0  0
   -0.9506    3.2297    3.7376 C   0  0  0  1  0  0  0  0  0  0  0  0
   -2.7883    1.7550    3.1585 N   0  0  0  1  0  0  0  0  0  0  0  0
   -1.4566    2.1803    2.7539 C   0  0  0  1  0  0  0  0  0  0  0  0
   -1.7171    4.0393    4.2578 O   0  0  0  1  0  0  0  0  0  0  0  0
    0.3677    3.2053    3.9894 N   0  0  0  1  0  0  0  0  0  0  0  0
   -3.5664    2.0032    2.6170 H   0  0  0  1  0  0  0  0  0  0  0  0
   -2.9521    1.0267    4.2665 C   0  0  0  1  0  0  0  0  0  0  0  0
    1.0005    4.1369    4.9113 C   0  0  0  1  0  0  0  0  0  0  0  0
   -4.3776    0.6153    4.5796 C   0  0  0  1  0  0  0  0  0  0  0  0
   -2.0182    0.7011    4.9983 O   0  0  0  1  0  0  0  0  0  0  0  0
    0.9234    2.5370    3.5367 H   0  0  0  1  0  0  0  0  0  0  0  0
    0.7456    5.1393    4.6371 H   0  0  0  1  0  0  0  0  0  0  0  0
    2.0626    4.0147    4.8684 H   0  0  0  1  0  0  0  0  0  0  0  0
    0.6583    3.9415    5.9061 H   0  0  0  1  0  0  0  0  0  0  0  0
   -4.5383   -0.3914    4.2547 H   0  0  0  1  0  0  0  0  0  0  0  0
   -5.0566    1.2669    4.0704 H   0  0  0  1  0  0  0  0  0  0  0  0
   -4.5437    0.6801    5.6347 H   0  0  0  1  0  0  0  0  0  0  0  0
   -1.6537    7.5575    0.7223 F   0  0  0  1  0  0  0  0  0  0  0  0
   -2.2545    6.3571    0.8321 C   0  0  0  1  0  0  0  0  0  0  0  0
   -1.5311    5.1894    1.0180 C   0  0  0  1  0  0  0  0  0  0  0  0
   -2.1883    3.9779    1.1203 C   0  0  0  1  0  0  0  0  0  0  0  0
   -3.5715    3.9312    1.0424 C   0  0  0  1  0  0  0  0  0  0  0  0
   -4.2931    5.0954    0.8571 C   0  0  0  1  0  0  0  0  0  0  0  0
   -3.6337    6.3104    0.7545 C   0  0  0  1  0  0  0  0  0  0  0  0
   -1.4001    2.7045    1.3170 C   0  0  0  1  0  0  0  0  0  0  0  0
   -0.4935    5.2249    1.0805 H   0  0  0  1  0  0  0  0  0  0  0  0
   -4.0664    3.0201    1.1234 H   0  0  0  1  0  0  0  0  0  0  0  0
   -5.3306    5.0598    0.7946 H   0  0  0  1  0  0  0  0  0  0  0  0
   -4.1768    7.1869    0.6190 H   0  0  0  1  0  0  0  0  0  0  0  0
   -1.7966    1.9544    0.6650 H   0  0  0  1  0  0  0  0  0  0  0  0
   -0.3780    2.8940    1.0636 H   0  0  0  1  0  0  0  0  0  0  0  0
  1  4  1  0  0  0  0
  2  4  1  0  0  0  0
  2  5  2  0  0  0  0
  2  6  1  0  0  0  0
  3  4  1  0  0  0  0
  3  7  1  0  0  0  0
  3  8  1  0  0  0  0
  4 26  1  0  0  0  0
  6  9  1  0  0  0  0
  6 12  1  0  0  0  0
  8 10  1  0  0  0  0
  8 11  2  0  0  0  0
  9 13  1  0  0  0  0
  9 14  1  0  0  0  0
  9 15  1  0  0  0  0
 10 16  1  0  0  0  0
 10 17  1  0  0  0  0
 10 18  1  0  0  0  0
 19 20  1  0  0  0  0
 20 21  4  0  0  0  0
 20 25  4  0  0  0  0
 21 22  4  0  0  0  0
 21 27  1  0  0  0  0
 22 23  4  0  0  0  0
 22 26  1  0  0  0  0
 23 24  4  0  0  0  0
 23 28  1  0  0  0  0
 24 25  4  0  0  0  0
 24 29  1  0  0  0  0
 25 30  1  0  0  0  0
 26 31  1  0  0  0  0
 26 32  1  0  0  0  0
M  END
> <BCLConfClusterSize>
1

> <ConfClashScore>
0 

> <ConfOneFourInteractionScore>
-0.982563 

> <ConfScore>
0.0822421 

> <ConfScorePBest>
0.0035902 

> <ConfTolerance>
0.515322 

> <RosettaParamsInstructions>
M  ROOT 3
M  POLY_N_BB 3
M  POLY_CA_BB 4
M  POLY_C_BB 2
M  POLY_O_BB 5
M  POLY_IGNORE 9 10 11 12 13 14 15 16 17 18 
M  POLY_UPPER 6
M  POLY_LOWER 8
M  POLY_CHG 0
M  POLY_PROPERTIES ALPHA_AA L_AA PROTEIN AROMATIC POLYMER 
M  END

$$$$



 32 32  0  0  0  0  0  0  0  0999 V2000
   -2.0420    2.4022    3.3009 H   0  0  0  1  0  0  0  0  0  0  0  0
   -0.5213    1.0042    2.8838 C   0  0  0  1  0  0  0  0  0  0  0  0
   -0.2456    3.4116    3.3909 N   0  0  0  1  0  0  0  0  0  0  0  0
   -1.1067    2.4046    2.7812 C   0  0  0  1  0  0  0  0  0  0  0  0
   -1.2483    0.0117    2.8829 O   0  0  0  1  0  0  0  0  0  0  0  0
    0.8094    0.9549    3.0541 N   0  0  0  1  0  0  0  0  0  0  0  0
    0.7037    3.4723    3.1554 H   0  0  0  1  0  0  0  0  0  0  0  0
   -0.7932    4.2572    4.2883 C   0  0  0  1  0  0  0  0  0  0  0  0
    1.4809   -0.3284    3.1958 C   0  0  0  1  0  0  0  0  0  0  0  0
    0.1508    5.2747    4.8950 C   0  0  0  1  0  0  0  0  0  0  0  0
   -1.9812    4.2195    4.6061 O   0  0  0  1  0  0  0  0  0  0  0  0
    1.3297    1.7848    3.0831 H   0  0  0  1  0  0  0  0  0  0  0  0
    0.8696   -0.9895    3.7740 H   0  0  0  1  0  0  0  0  0  0  0  0
    2.4193   -0.1870    3.6901 H   0  0  0  1  0  0  0  0  0  0  0  0
    1.6475   -0.7523    2.2276 H   0  0  0  1  0  0  0  0  0  0  0  0
    0.1980    6.1383    4.2650 H   0  0  0  1  0  0  0  0  0  0  0  0
    1.1269    4.8457    4.9854 H   0  0  0  1  0  0  0  0  0  0  0  0
   -0.2056    5.5587    5.8631 H   0  0  0  1  0  0  0  0  0  0  0  0
   -1.6537    7.5575    0.7223 F   0  0  0  1  0  0  0  0  0  0  0  0
   -2.2545    6.3571    0.8321 C   0  0  0  1  0  0  0  0  0  0  0  0
   -1.5311    5.1894    1.0180 C   0  0  0  1  0  0  0  0  0  0  0  0
   -2.1883    3.9779    1.1203 C   0  0  0  1  0  0  0  0  0  0  0  0
   -3.5715    3.9312    1.0424 C   0  0  0  1  0  0  0  0  0  0  0  0
   -4.2931    5.0954    0.8571 C   0  0  0  1  0  0  0  0  0  0  0  0
   -3.6337    6.3104    0.7545 C   0  0  0  1  0  0  0  0  0  0  0  0
   -1.4001    2.7045    1.3170 C   0  0  0  1  0  0  0  0  0  0  0  0
   -0.4935    5.2249    1.0805 H   0  0  0  1  0  0  0  0  0  0  0  0
   -4.0664    3.0201    1.1234 H   0  0  0  1  0  0  0  0  0  0  0  0
   -5.3306    5.0598    0.7946 H   0  0  0  1  0  0  0  0  0  0  0  0
   -4.1768    7.1869    0.6190 H   0  0  0  1  0  0  0  0  0  0  0  0
   -1.9612    1.8901    0.9083 H   0  0  0  1  0  0  0  0  0  0  0  0
   -0.4705    2.7953    0.7951 H   0  0  0  1  0  0  0  0  0  0  0  0
  1  4  1  0  0  0  0
  2  4  1  0  0  0  0
  2  5  2  0  0  0  0
  2  6  1  0  0  0  0
  3  4  1  0  0  0  0
  3  7  1  0  0  0  0
  3  8  1  0  0  0  0
  4 26  1  0  0  0  0
  6  9  1  0  0  0  0
  6 12  1  0  0  0  0
  8 10  1  0  0  0  0
  8 11  2  0  0  0  0
  9 13  1  0  0  0  0
  9 14  1  0  0  0  0
  9 15  1  0  0  0  0
 10 16  1  0  0  0  0
 10 17  1  0  0  0  0
 10 18  1  0  0  0  0
 19 20  1  0  0  0  0
 20 21  4  0  0  0  0
 20 25  4  0  0  0  0
 21 22  4  0  0  0  0
 21 27  1  0  0  0  0
 22 23  4  0  0  0  0
 22 26  1  0  0  0  0
 23 24  4  0  0  0  0
 23 28  1  0  0  0  0
 24 25  4  0  0  0  0
 24 29  1  0  0  0  0
 25 30  1  0  0  0  0
 26 31  1  0  0  0  0
 26 32  1  0  0  0  0
M  END
> <BCLConfClusterSize>
1

> <ConfClashScore>
0 

> <ConfOneFourInteractionScore>
-0.961209 

> <ConfScore>
0.0855339 

> <ConfScorePBest>
0.00356172 

> <ConfTolerance>
0.42129 

> <RosettaParamsInstructions>
M  ROOT 3
M  POLY_N_BB 3
M  POLY_CA_BB 4
M  POLY_C_BB 2
M  POLY_O_BB 5
M  POLY_IGNORE 9 10 11 12 13 14 15 16 17 18 
M  POLY_UPPER 6
M  POLY_LOWER 8
M  POLY_CHG 0
M  POLY_PROPERTIES ALPHA_AA L_AA PROTEIN AROMATIC POLYMER 
M  END

$$$$



 32 32  0  0  0  0  0  0  0  0999 V2000
   -2.8505    1.5630    0.3266 H   0  0  0  1  0  0  0  0  0  0  0  0
   -1.4884    0.1496    1.0372 C   0  0  0  1  0  0  0  0  0  0  0  0
   -3.1950    1.3604    2.3477 N   0  0  0  1  0  0  0  0  0  0  0  0
   -2.2564    1.4457    1.2087 C   0  0  0  1  0  0  0  0  0  0  0  0
   -1.2052   -0.5575    2.0034 O   0  0  0  1  0  0  0  0  0  0  0  0
   -1.1468   -0.1635   -0.2227 N   0  0  0  1  0  0  0  0  0  0  0  0
   -2.9792    1.7720    3.2105 H   0  0  0  1  0  0  0  0  0  0  0  0
   -4.3573    0.6999    2.1655 C   0  0  0  1  0  0  0  0  0  0  0  0
   -0.2714   -1.2832   -0.5355 C   0  0  0  1  0  0  0  0  0  0  0  0
   -5.2663    0.6199    3.3765 C   0  0  0  1  0  0  0  0  0  0  0  0
   -4.6763    0.1888    1.0928 O   0  0  0  1  0  0  0  0  0  0  0  0
   -1.4991    0.3809   -0.9575 H   0  0  0  1  0  0  0  0  0  0  0  0
    0.4172   -1.4339    0.2696 H   0  0  0  1  0  0  0  0  0  0  0  0
    0.2708   -1.0718   -1.4334 H   0  0  0  1  0  0  0  0  0  0  0  0
   -0.8585   -2.1672   -0.6725 H   0  0  0  1  0  0  0  0  0  0  0  0
   -6.0944   -0.0220    3.1596 H   0  0  0  1  0  0  0  0  0  0  0  0
   -5.6270    1.5982    3.6166 H   0  0  0  1  0  0  0  0  0  0  0  0
   -4.7189    0.2270    4.2077 H   0  0  0  1  0  0  0  0  0  0  0  0
   -1.6228    7.5417    0.7261 F   0  0  0  1  0  0  0  0  0  0  0  0
   -2.2608    6.3603    0.8314 C   0  0  0  1  0  0  0  0  0  0  0  0
   -1.5345    5.1943    1.0172 C   0  0  0  1  0  0  0  0  0  0  0  0
   -2.1888    3.9813    1.1199 C   0  0  0  1  0  0  0  0  0  0  0  0
   -3.5719    3.9313    1.0424 C   0  0  0  1  0  0  0  0  0  0  0  0
   -4.2963    5.0937    0.8570 C   0  0  0  1  0  0  0  0  0  0  0  0
   -3.6399    6.3103    0.7541 C   0  0  0  1  0  0  0  0  0  0  0  0
   -1.3975    2.7098    1.3166 C   0  0  0  1  0  0  0  0  0  0  0  0
   -0.4971    5.2324    1.0794 H   0  0  0  1  0  0  0  0  0  0  0  0
   -4.0646    3.0190    1.1236 H   0  0  0  1  0  0  0  0  0  0  0  0
   -5.3338    5.0556    0.7949 H   0  0  0  1  0  0  0  0  0  0  0  0
   -4.1852    7.1855    0.6187 H   0  0  0  1  0  0  0  0  0  0  0  0
   -0.6321    2.6662    0.5702 H   0  0  0  1  0  0  0  0  0  0  0  0
   -0.9487    2.7348    2.2875 H   0  0  0  1  0  0  0  0  0  0  0  0
  1  4  1  0  0  0  0
  2  4  1  0  0  0  0
  2  5  2  0  0  0  0
  2  6  1  0  0  0  0
  3  4  1  0  0  0  0
  3  7  1  0  0  0  0
  3  8  1  0  0  0  0
  4 26  1  0  0  0  0
  6  9  1  0  0  0  0
  6 12  1  0  0  0  0
  8 10  1  0  0  0  0
  8 11  2  0  0  0  0
  9 13  1  0  0  0  0
  9 14  1  0  0  0  0
  9 15  1  0  0  0  0
 10 16  1  0  0  0  0
 10 17  1  0  0  0  0
 10 18  1  0  0  0  0
 19 20  1  0  0  0  0
 20 21  4  0  0  0  0
 20 25  4  0  0  0  0
 21 22  4  0  0  0  0
 21 27  1  0  0  0  0
 22 23  4  0  0  0  0
 22 26  1  0  0  0  0
 23 24  4  0  0  0  0
 23 28  1  0  0  0  0
 24 25  4  0  0  0  0
 24 29  1  0  0  0  0
 25 30  1  0  0  0  0
 26 31  1  0  0  0  0
 26 32  1  0  0  0  0
M  END
> <BCLConfClusterSize>
1

> <ConfClashScore>
0 

> <ConfOneFourInteractionScore>
-0.96681 

> <ConfScore>
0.0896716 

> <ConfScorePBest>
0.00353324 

> <ConfTolerance>
0.886247 

> <RosettaParamsInstructions>
M  ROOT 3
M  POLY_N_BB 3
M  POLY_CA_BB 4
M  POLY_C_BB 2
M  POLY_O_BB 5
M  POLY_IGNORE 9 10 11 12 13 14 15 16 17 18 
M  POLY_UPPER 6
M  POLY_LOWER 8
M  POLY_CHG 0
M  POLY_PROPERTIES ALPHA_AA L_AA PROTEIN AROMATIC POLYMER 
M  END

$$$$



 32 32  0  0  0  0  0  0  0  0999 V2000
   -0.1587    2.8375   -0.4025 H   0  0  0  1  0  0  0  0  0  0  0  0
   -0.1183    0.8364    0.3138 C   0  0  0  1  0  0  0  0  0  0  0  0
   -1.9426    1.9115   -0.9242 N   0  0  0  1  0  0  0  0  0  0  0  0
   -0.8534    2.1382    0.0139 C   0  0  0  1  0  0  0  0  0  0  0  0
    1.0913    0.7443    0.4063 O   0  0  0  1  0  0  0  0  0  0  0  0
   -0.8857   -0.2422    0.4775 N   0  0  0  1  0  0  0  0  0  0  0  0
   -2.6875    1.3351   -0.6536 H   0  0  0  1  0  0  0  0  0  0  0  0
   -1.9622    2.4609   -2.1396 C   0  0  0  1  0  0  0  0  0  0  0  0
   -0.3996   -1.5610    0.8552 C   0  0  0  1  0  0  0  0  0  0  0  0
   -3.2521    2.2911   -2.9184 C   0  0  0  1  0  0  0  0  0  0  0  0
   -1.0048    3.0701   -2.6149 O   0  0  0  1  0  0  0  0  0  0  0  0
   -1.8494   -0.1389    0.3326 H   0  0  0  1  0  0  0  0  0  0  0  0
   -0.0392   -1.5339    1.8623 H   0  0  0  1  0  0  0  0  0  0  0  0
    0.3955   -1.8490    0.1997 H   0  0  0  1  0  0  0  0  0  0  0  0
   -1.1979   -2.2697    0.7813 H   0  0  0  1  0  0  0  0  0  0  0  0
   -3.0546    1.7575   -3.8246 H   0  0  0  1  0  0  0  0  0  0  0  0
   -3.6564    3.2537   -3.1526 H   0  0  0  1  0  0  0  0  0  0  0  0
   -3.9555    1.7424   -2.3277 H   0  0  0  1  0  0  0  0  0  0  0  0
   -1.6228    7.5417    0.7261 F   0  0  0  1  0  0  0  0  0  0  0  0
   -2.2608    6.3603    0.8314 C   0  0  0  1  0  0  0  0  0  0  0  0
   -1.5345    5.1943    1.0172 C   0  0  0  1  0  0  0  0  0  0  0  0
   -2.1888    3.9813    1.1199 C   0  0  0  1  0  0  0  0  0  0  0  0
   -3.5719    3.9313    1.0424 C   0  0  0  1  0  0  0  0  0  0  0  0
   -4.2963    5.0937    0.8570 C   0  0  0  1  0  0  0  0  0  0  0  0
   -3.6399    6.3103    0.7541 C   0  0  0  1  0  0  0  0  0  0  0  0
   -1.3975    2.7098    1.3166 C   0  0  0  1  0  0  0  0  0  0  0  0
   -0.4971    5.2324    1.0794 H   0  0  0  1  0  0  0  0  0  0  0  0
   -4.0646    3.0190    1.1236 H   0  0  0  1  0  0  0  0  0  0  0  0
   -5.3338    5.0556    0.7949 H   0  0  0  1  0  0  0  0  0  0  0  0
   -4.1852    7.1855    0.6187 H   0  0  0  1  0  0  0  0  0  0  0  0
   -0.5741    2.9183    1.9672 H   0  0  0  1  0  0  0  0  0  0  0  0
   -2.0344    1.9789    1.7694 H   0  0  0  1  0  0  0  0  0  0  0  0
  1  4  1  0  0  0  0
  2  4  1  0  0  0  0
  2  5  2  0  0  0  0
  2  6  1  0  0  0  0
  3  4  1  0  0  0  0
  3  7  1  0  0  0  0
  3  8  1  0  0  0  0
  4 26  1  0  0  0  0
  6  9  1  0  0  0  0
  6 12  1  0  0  0  0
  8 10  1  0  0  0  0
  8 11  2  0  0  0  0
  9 13  1  0  0  0  0
  9 14  1  0  0  0  0
  9 15  1  0  0  0  0
 10 16  1  0  0  0  0
 10 17  1  0  0  0  0
 10 18  1  0  0  0  0
 19 20  1  0  0  0  0
 20 21  4  0  0  0  0
 20 25  4  0  0  0  0
 21 22  4  0  0  0  0
 21 27  1  0  0  0  0
 22 23  4  0  0  0  0
 22 26  1  0  0  0  0
 23 24  4  0  0  0  0
 23 28  1  0  0  0  0
 24 25  4  0  0  0  0
 24 29  1  0  0  0  0
 25 30  1  0  0  0  0
 26 31  1  0  0  0  0
 26 32  1  0  0  0  0
M  END
> <BCLConfClusterSize>
1

> <ConfClashScore>
0 

> <ConfOneFourInteractionScore>
-0.960318 

> <ConfScore>
0.0974682 

> <ConfScorePBest>
0.00350476 

> <ConfTolerance>
0.529093 

> <RosettaParamsInstructions>
M  ROOT 3
M  POLY_N_BB 3
M  POLY_CA_BB 4
M  POLY_C_BB 2
M  POLY_O_BB 5
M  POLY_IGNORE 9 10 11 12 13 14 15 16 17 18 
M  POLY_UPPER 6
M  POLY_LOWER 8
M  POLY_CHG 0
M  POLY_PROPERTIES ALPHA_AA L_AA PROTEIN AROMATIC POLYMER 
M  END

$$$$



 32 32  0  0  0  0  0  0  0  0999 V2000
   -0.5246    1.1308    0.2865 H   0  0  0  1  0  0  0  0  0  0  0  0
   -2.1317    1.6677   -0.9110 C   0  0  0  1  0  0  0  0  0  0  0  0
    0.0543    2.8252   -0.7030 N   0  0  0  1  0  0  0  0  0  0  0  0
   -0.9866    2.0539    0.0048 C   0  0  0  1  0  0  0  0  0  0  0  0
   -2.5600    2.4562   -1.7528 O   0  0  0  1  0  0  0  0  0  0  0  0
   -2.6625    0.4422   -0.7754 N   0  0  0  1  0  0  0  0  0  0  0  0
   -0.1373    3.7349   -1.0133 H   0  0  0  1  0  0  0  0  0  0  0  0
    1.2621    2.2835   -0.9223 C   0  0  0  1  0  0  0  0  0  0  0  0
   -3.6320   -0.0939   -1.7192 C   0  0  0  1  0  0  0  0  0  0  0  0
    2.2958    3.1184   -1.6528 C   0  0  0  1  0  0  0  0  0  0  0  0
    1.5256    1.1433   -0.5429 O   0  0  0  1  0  0  0  0  0  0  0  0
   -2.3876   -0.1108   -0.0144 H   0  0  0  1  0  0  0  0  0  0  0  0
   -3.7978    0.6157   -2.5027 H   0  0  0  1  0  0  0  0  0  0  0  0
   -4.5542   -0.2868   -1.2120 H   0  0  0  1  0  0  0  0  0  0  0  0
   -3.2568   -1.0048   -2.1368 H   0  0  0  1  0  0  0  0  0  0  0  0
    2.3512    4.0892   -1.2063 H   0  0  0  1  0  0  0  0  0  0  0  0
    2.0146    3.2144   -2.6807 H   0  0  0  1  0  0  0  0  0  0  0  0
    3.2510    2.6407   -1.5869 H   0  0  0  1  0  0  0  0  0  0  0  0
   -1.6228    7.5417    0.7261 F   0  0  0  1  0  0  0  0  0  0  0  0
   -2.2608    6.3603    0.8314 C   0  0  0  1  0  0  0  0  0  0  0  0
   -1.5345    5.1943    1.0172 C   0  0  0  1  0  0  0  0  0  0  0  0
   -2.1888    3.9813    1.1199 C   0  0  0  1  0  0  0  0  0  0  0  0
   -3.5719    3.9313    1.0424 C   0  0  0  1  0  0  0  0  0  0  0  0
   -4.2963    5.0937    0.8570 C   0  0  0  1  0  0  0  0  0  0  0  0
   -3.6399    6.3103    0.7541 C   0  0  0  1  0  0  0  0  0  0  0  0
   -1.3975    2.7098    1.3166 C   0  0  0  1  0  0  0  0  0  0  0  0
   -0.4971    5.2324    1.0794 H   0  0  0  1  0  0  0  0  0  0  0  0
   -4.0646    3.0190    1.1236 H   0  0  0  1  0  0  0  0  0  0  0  0
   -5.3338    5.0556    0.7949 H   0  0  0  1  0  0  0  0  0  0  0  0
   -4.1852    7.1855    0.6187 H   0  0  0  1  0  0  0  0  0  0  0  0
   -0.5135    2.9415    1.8731 H   0  0  0  1  0  0  0  0  0  0  0  0
   -1.9971    2.0178    1.8702 H   0  0  0  1  0  0  0  0  0  0  0  0
  1  4  1  0  0  0  0
  2  4  1  0  0  0  0
  2  5  2  0  0  0  0
  2  6  1  0  0  0  0
  3  4  1  0  0  0  0
  3  7  1  0  0  0  0
  3  8  1  0  0  0  0
  4 26  1  0  0  0  0
  6  9  1  0  0  0  0
  6 12  1  0  0  0  0
  8 10  1  0  0  0  0
  8 11  2  0  0  0  0
  9 13  1  0  0  0  0
  9 14  1  0  0  0  0
  9 15  1  0  0  0  0
 10 16  1  0  0  0  0
 10 17  1  0  0  0  0
 10 18  1  0  0  0  0
 19 20  1  0  0  0  0
 20 21  4  0  0  0  0
 20 25  4  0  0  0  0
 21 22  4  0  0  0  0
 21 27  1  0  0  0  0
 22 23  4  0  0  0  0
 22 26  1  0  0  0  0
 23 24  4  0  0  0  0
 23 28  1  0  0  0  0
 24 25  4  0  0  0  0
 24 29  1  0  0  0  0
 25 30  1  0  0  0  0
 26 31  1  0  0  0  0
 26 32  1  0  0  0  0
M  END
> <BCLConfClusterSize>
1

> <ConfClashScore>
0 

> <ConfOneFourInteractionScore>
-0.982563 

> <ConfScore>
0.107969 

> <ConfScorePBest>
0.00347628 

> <ConfTolerance>
0.648194 

> <RosettaParamsInstructions>
M  ROOT 3
M  POLY_N_BB 3
M  POLY_CA_BB 4
M  POLY_C_BB 2
M  POLY_O_BB 5
M  POLY_IGNORE 9 10 11 12 13 14 15 16 17 18 
M  POLY_UPPER 6
M  POLY_LOWER 8
M  POLY_CHG 0
M  POLY_PROPERTIES ALPHA_AA L_AA PROTEIN AROMATIC POLYMER 
M  END

$$$$



 32 32  0  0  0  0  0  0  0  0999 V2000
   -1.6267    2.6351    3.4102 H   0  0  0  1  0  0  0  0  0  0  0  0
   -3.1189    1.4038    2.5782 C   0  0  0  1  0  0  0  0  0  0  0  0
   -0.7759    0.8481    2.8388 N   0  0  0  1  0  0  0  0  0  0  0  0
   -1.6994    1.9460    2.5949 C   0  0  0  1  0  0  0  0  0  0  0  0
   -3.3848    0.3300    2.0447 O   0  0  0  1  0  0  0  0  0  0  0  0
   -4.0373    2.1658    3.1743 N   0  0  0  1  0  0  0  0  0  0  0  0
    0.0189    0.7894    2.2685 H   0  0  0  1  0  0  0  0  0  0  0  0
   -0.9298   -0.0845    3.7800 C   0  0  0  1  0  0  0  0  0  0  0  0
   -5.4295    1.7581    3.2901 C   0  0  0  1  0  0  0  0  0  0  0  0
    0.1994   -1.1087    3.8671 C   0  0  0  1  0  0  0  0  0  0  0  0
   -1.9306   -0.1827    4.4889 O   0  0  0  1  0  0  0  0  0  0  0  0
   -3.7650    3.0302    3.5473 H   0  0  0  1  0  0  0  0  0  0  0  0
   -6.0448    2.6229    3.4259 H   0  0  0  1  0  0  0  0  0  0  0  0
   -5.5411    1.1057    4.1308 H   0  0  0  1  0  0  0  0  0  0  0  0
   -5.7263    1.2459    2.3987 H   0  0  0  1  0  0  0  0  0  0  0  0
    0.2742   -1.6375    2.9399 H   0  0  0  1  0  0  0  0  0  0  0  0
   -0.0073   -1.8008    4.6565 H   0  0  0  1  0  0  0  0  0  0  0  0
    1.1225   -0.6054    4.0658 H   0  0  0  1  0  0  0  0  0  0  0  0
   -1.5924    7.5248    0.7300 F   0  0  0  1  0  0  0  0  0  0  0  0
   -2.2671    6.3635    0.8306 C   0  0  0  1  0  0  0  0  0  0  0  0
   -1.5379    5.1994    1.0164 C   0  0  0  1  0  0  0  0  0  0  0  0
   -2.1893    3.9848    1.1194 C   0  0  0  1  0  0  0  0  0  0  0  0
   -3.5723    3.9314    1.0423 C   0  0  0  1  0  0  0  0  0  0  0  0
   -4.2996    5.0921    0.8570 C   0  0  0  1  0  0  0  0  0  0  0  0
   -3.6461    6.3102    0.7537 C   0  0  0  1  0  0  0  0  0  0  0  0
   -1.3949    2.7152    1.3161 C   0  0  0  1  0  0  0  0  0  0  0  0
   -0.5006    5.2399    1.0783 H   0  0  0  1  0  0  0  0  0  0  0  0
   -4.0627    3.0180    1.1239 H   0  0  0  1  0  0  0  0  0  0  0  0
   -5.3369    5.0515    0.7952 H   0  0  0  1  0  0  0  0  0  0  0  0
   -4.1935    7.1841    0.6183 H   0  0  0  1  0  0  0  0  0  0  0  0
   -1.5945    2.0692    0.4868 H   0  0  0  1  0  0  0  0  0  0  0  0
   -0.3566    2.9737    1.3257 H   0  0  0  1  0  0  0  0  0  0  0  0
  1  4  1  0  0  0  0
  2  4  1  0  0  0  0
  2  5  2  0  0  0  0
  2  6  1  0  0  0  0
  3  4  1  0  0  0  0
  3  7  1  0  0  0  0
  3  8  1  0  0  0  0
  4 26  1  0  0  0  0
  6  9  1  0  0  0  0
  6 12  1  0  0  0  0
  8 10  1  0  0  0  0
  8 11  2  0  0  0  0
  9 13  1  0  0  0  0
  9 14  1  0  0  0  0
  9 15  1  0  0  0  0
 10 16  1  0  0  0  0
 10 17  1  0  0  0  0
 10 18  1  0  0  0  0
 19 20  1  0  0  0  0
 20 21  4  0  0  0  0
 20 25  4  0  0  0  0
 21 22  4  0  0  0  0
 21 27  1  0  0  0  0
 22 23  4  0  0  0  0
 22 26  1  0  0  0  0
 23 24  4  0  0  0  0
 23 28  1  0  0  0  0
 24 25  4  0  0  0  0
 24 29  1  0  0  0  0
 25 30  1  0  0  0  0
 26 31  1  0  0  0  0
 26 32  1  0  0  0  0
M  END
> <BCLConfClusterSize>
1

> <ConfClashScore>
0 

> <ConfOneFourInteractionScore>
-0.985807 

> <ConfScore>
0.124627 

> <ConfScorePBest>
0.0034478 

> <ConfTolerance>
0.554851 

> <RosettaParamsInstructions>
M  ROOT 3
M  POLY_N_BB 3
M  POLY_CA_BB 4
M  POLY_C_BB 2
M  POLY_O_BB 5
M  POLY_IGNORE 9 10 11 12 13 14 15 16 17 18 
M  POLY_UPPER 6
M  POLY_LOWER 8
M  POLY_CHG 0
M  POLY_PROPERTIES ALPHA_AA L_AA PROTEIN AROMATIC POLYMER 
M  END

$$$$



 32 32  0  0  0  0  0  0  0  0999 V2000
   -0.5349    3.1407    3.1426 H   0  0  0  1  0  0  0  0  0  0  0  0
   -2.4393    2.4426    3.6279 C   0  0  0  1  0  0  0  0  0  0  0  0
   -0.4628    1.1109    2.9759 N   0  0  0  1  0  0  0  0  0  0  0  0
   -1.1769    2.3641    2.7826 C   0  0  0  1  0  0  0  0  0  0  0  0
   -3.1293    1.4463    3.8388 O   0  0  0  1  0  0  0  0  0  0  0  0
   -2.7389    3.6562    4.1173 N   0  0  0  1  0  0  0  0  0  0  0  0
   -0.9767    0.2975    3.1622 H   0  0  0  1  0  0  0  0  0  0  0  0
    0.8822    1.0299    2.9077 C   0  0  0  1  0  0  0  0  0  0  0  0
   -4.0225    3.8871    4.7631 C   0  0  0  1  0  0  0  0  0  0  0  0
    1.5318   -0.3078    3.2040 C   0  0  0  1  0  0  0  0  0  0  0  0
    1.5639    2.0111    2.6138 O   0  0  0  1  0  0  0  0  0  0  0  0
   -2.0920    4.3882    4.0394 H   0  0  0  1  0  0  0  0  0  0  0  0
   -4.3702    2.9757    5.2027 H   0  0  0  1  0  0  0  0  0  0  0  0
   -4.7313    4.2256    4.0366 H   0  0  0  1  0  0  0  0  0  0  0  0
   -3.9095    4.6299    5.5250 H   0  0  0  1  0  0  0  0  0  0  0  0
    1.9648   -0.7009    2.3080 H   0  0  0  1  0  0  0  0  0  0  0  0
    0.7931   -0.9891    3.5716 H   0  0  0  1  0  0  0  0  0  0  0  0
    2.2959   -0.1773    3.9416 H   0  0  0  1  0  0  0  0  0  0  0  0
   -1.6268    7.5487    0.7250 F   0  0  0  1  0  0  0  0  0  0  0  0
   -2.2607    6.3650    0.8308 C   0  0  0  1  0  0  0  0  0  0  0  0
   -1.5303    5.2017    1.0166 C   0  0  0  1  0  0  0  0  0  0  0  0
   -2.1803    3.9864    1.1198 C   0  0  0  1  0  0  0  0  0  0  0  0
   -3.5633    3.9316    1.0429 C   0  0  0  1  0  0  0  0  0  0  0  0
   -4.2918    5.0914    0.8576 C   0  0  0  1  0  0  0  0  0  0  0  0
   -3.6396    6.3102    0.7541 C   0  0  0  1  0  0  0  0  0  0  0  0
   -1.4379    2.6859    1.3169 C   0  0  0  1  0  0  0  0  0  0  0  0
   -0.4929    5.2433    1.0783 H   0  0  0  1  0  0  0  0  0  0  0  0
   -4.0527    3.0176    1.1246 H   0  0  0  1  0  0  0  0  0  0  0  0
   -5.3291    5.0497    0.7959 H   0  0  0  1  0  0  0  0  0  0  0  0
   -4.1880    7.1835    0.6187 H   0  0  0  1  0  0  0  0  0  0  0  0
   -2.0193    1.8941    0.8927 H   0  0  0  1  0  0  0  0  0  0  0  0
   -0.4979    2.7501    0.8098 H   0  0  0  1  0  0  0  0  0  0  0  0
  1  4  1  0  0  0  0
  2  4  1  0  0  0  0
  2  5  2  0  0  0  0
  2  6  1  0  0  0  0
  3  4  1  0  0  0  0
  3  7  1  0  0  0  0
  3  8  1  0  0  0  0
  4 26  1  0  0  0  0
  6  9  1  0  0  0  0
  6 12  1  0  0  0  0
  8 10  1  0  0  0  0
  8 11  2  0  0  0  0
  9 13  1  0  0  0  0
  9 14  1  0  0  0  0
  9 15  1  0  0  0  0
 10 16  1  0  0  0  0
 10 17  1  0  0  0  0
 10 18  1  0  0  0  0
 19 20  1  0  0  0  0
 20 21  4  0  0  0  0
 20 25  4  0  0  0  0
 21 22  4  0  0  0  0
 21 27  1  0  0  0  0
 22 23  4  0  0  0  0
 22 26  1  0  0  0  0
 23 24  4  0  0  0  0
 23 28  1  0  0  0  0
 24 25  4  0  0  0  0
 24 29  1  0  0  0  0
 25 30  1  0  0  0  0
 26 31  1  0  0  0  0
 26 32  1  0  0  0  0
M  END
> <BCLConfClusterSize>
1

> <ConfClashScore>
0 

> <ConfOneFourInteractionScore>
-0.990503 

> <ConfScore>
0.124829 

> <ConfScorePBest>
0.00341932 

> <ConfTolerance>
0.48797 

> <RosettaParamsInstructions>
M  ROOT 3
M  POLY_N_BB 3
M  POLY_CA_BB 4
M  POLY_C_BB 2
M  POLY_O_BB 5
M  POLY_IGNORE 9 10 11 12 13 14 15 16 17 18 
M  POLY_UPPER 6
M  POLY_LOWER 8
M  POLY_CHG 0
M  POLY_PROPERTIES ALPHA_AA L_AA PROTEIN AROMATIC POLYMER 
M  END

$$$$



 32 32  0  0  0  0  0  0  0  0999 V2000
    0.4945    1.8548    1.5959 H   0  0  0  1  0  0  0  0  0  0  0  0
    0.6643    3.2044   -0.0085 C   0  0  0  1  0  0  0  0  0  0  0  0
    0.5139    3.7491    2.4045 N   0  0  0  1  0  0  0  0  0  0  0  0
    0.1084    2.8228    1.3533 C   0  0  0  1  0  0  0  0  0  0  0  0
    0.8426    4.3717   -0.3152 O   0  0  0  1  0  0  0  0  0  0  0  0
    0.9395    2.1817   -0.8335 N   0  0  0  1  0  0  0  0  0  0  0  0
    0.7144    4.6780    2.1649 H   0  0  0  1  0  0  0  0  0  0  0  0
    0.6215    3.3753    3.6826 C   0  0  0  1  0  0  0  0  0  0  0  0
    1.5863    2.3087   -2.1309 C   0  0  0  1  0  0  0  0  0  0  0  0
    1.0243    4.4943    4.6448 C   0  0  0  1  0  0  0  0  0  0  0  0
    0.3480    2.2532    4.1065 O   0  0  0  1  0  0  0  0  0  0  0  0
    0.6857    1.2818   -0.5399 H   0  0  0  1  0  0  0  0  0  0  0  0
    2.2979    3.1072   -2.0987 H   0  0  0  1  0  0  0  0  0  0  0  0
    0.8492    2.5182   -2.8777 H   0  0  0  1  0  0  0  0  0  0  0  0
    2.0875    1.3942   -2.3704 H   0  0  0  1  0  0  0  0  0  0  0  0
    0.2673    5.2505    4.6501 H   0  0  0  1  0  0  0  0  0  0  0  0
    1.9523    4.9213    4.3264 H   0  0  0  1  0  0  0  0  0  0  0  0
    1.1350    4.0939    5.6308 H   0  0  0  1  0  0  0  0  0  0  0  0
   -1.6228    7.5417    0.7261 F   0  0  0  1  0  0  0  0  0  0  0  0
   -2.2608    6.3603    0.8314 C   0  0  0  1  0  0  0  0  0  0  0  0
   -1.5345    5.1943    1.0172 C   0  0  0  1  0  0  0  0  0  0  0  0
   -2.1888    3.9813    1.1199 C   0  0  0  1  0  0  0  0  0  0  0  0
   -3.5719    3.9313    1.0424 C   0  0  0  1  0  0  0  0  0  0  0  0
   -4.2963    5.0937    0.8570 C   0  0  0  1  0  0  0  0  0  0  0  0
   -3.6399    6.3103    0.7541 C   0  0  0  1  0  0  0  0  0  0  0  0
   -1.3975    2.7098    1.3166 C   0  0  0  1  0  0  0  0  0  0  0  0
   -0.4971    5.2324    1.0794 H   0  0  0  1  0  0  0  0  0  0  0  0
   -4.0646    3.0190    1.1236 H   0  0  0  1  0  0  0  0  0  0  0  0
   -5.3338    5.0556    0.7949 H   0  0  0  1  0  0  0  0  0  0  0  0
   -4.1852    7.1855    0.6187 H   0  0  0  1  0  0  0  0  0  0  0  0
   -1.7090    2.2793    2.2453 H   0  0  0  1  0  0  0  0  0  0  0  0
   -1.6495    2.0485    0.5140 H   0  0  0  1  0  0  0  0  0  0  0  0
  1  4  1  0  0  0  0
  2  4  1  0  0  0  0
  2  5  2  0  0  0  0
  2  6  1  0  0  0  0
  3  4  1  0  0  0  0
  3  7  1  0  0  0  0
  3  8  1  0  0  0  0
  4 26  1  0  0  0  0
  6  9  1  0  0  0  0
  6 12  1  0  0  0  0
  8 10  1  0  0  0  0
  8 11  2  0  0  0  0
  9 13  1  0  0  0  0
  9 14  1  0  0  0  0
  9 15  1  0  0  0  0
 10 16  1  0  0  0  0
 10 17  1  0  0  0  0
 10 18  1  0  0  0  0
 19 20  1  0  0  0  0
 20 21  4  0  0  0  0
 20 25  4  0  0  0  0
 21 22  4  0  0  0  0
 21 27  1  0  0  0  0
 22 23  4  0  0  0  0
 22 26  1  0  0  0  0
 23 24  4  0  0  0  0
 23 28  1  0  0  0  0
 24 25  4  0  0  0  0
 24 29  1  0  0  0  0
 25 30  1  0  0  0  0
 26 31  1  0  0  0  0
 26 32  1  0  0  0  0
M  END
> <BCLConfClusterSize>
1

> <ConfClashScore>
0 

> <ConfOneFourInteractionScore>
-0.973348 

> <ConfScore>
0.125771 

> <ConfScorePBest>
0.00339084 

> <ConfTolerance>
0.896304 

> <RosettaParamsInstructions>
M  ROOT 3
M  POLY_N_BB 3
M  POLY_CA_BB 4
M  POLY_C_BB 2
M  POLY_O_BB 5
M  POLY_IGNORE 9 10 11 12 13 14 15 16 17 18 
M  POLY_UPPER 6
M  POLY_LOWER 8
M  POLY_CHG 0
M  POLY_PROPERTIES ALPHA_AA L_AA PROTEIN AROMATIC POLYMER 
M  END

$$$$



 32 32  0  0  0  0  0  0  0  0999 V2000
    0.0361    2.8829   -0.2094 H   0  0  0  1  0  0  0  0  0  0  0  0
   -0.1056    0.8214    0.1478 C   0  0  0  1  0  0  0  0  0  0  0  0
   -1.6751    2.1984   -1.1139 N   0  0  0  1  0  0  0  0  0  0  0  0
   -0.7525    2.1986    0.0246 C   0  0  0  1  0  0  0  0  0  0  0  0
   -0.4670    0.0261    0.9994 O   0  0  0  1  0  0  0  0  0  0  0  0
    0.8717    0.5552   -0.7332 N   0  0  0  1  0  0  0  0  0  0  0  0
   -2.6354    2.2093   -0.9189 H   0  0  0  1  0  0  0  0  0  0  0  0
   -1.3062    2.1844   -2.3957 C   0  0  0  1  0  0  0  0  0  0  0  0
    1.5292   -0.7415   -0.7966 C   0  0  0  1  0  0  0  0  0  0  0  0
   -2.4364    2.1495   -3.4061 C   0  0  0  1  0  0  0  0  0  0  0  0
   -0.1393    2.1984   -2.7514 O   0  0  0  1  0  0  0  0  0  0  0  0
    1.1521    1.2586   -1.3554 H   0  0  0  1  0  0  0  0  0  0  0  0
    2.3167   -0.7784   -0.0732 H   0  0  0  1  0  0  0  0  0  0  0  0
    1.9370   -0.8869   -1.7751 H   0  0  0  1  0  0  0  0  0  0  0  0
    0.8173   -1.5126   -0.5882 H   0  0  0  1  0  0  0  0  0  0  0  0
   -2.6409    3.1426   -3.7476 H   0  0  0  1  0  0  0  0  0  0  0  0
   -3.3130    1.7431   -2.9464 H   0  0  0  1  0  0  0  0  0  0  0  0
   -2.1527    1.5381   -4.2371 H   0  0  0  1  0  0  0  0  0  0  0  0
   -1.6228    7.5417    0.7261 F   0  0  0  1  0  0  0  0  0  0  0  0
   -2.2608    6.3603    0.8314 C   0  0  0  1  0  0  0  0  0  0  0  0
   -1.5345    5.1943    1.0172 C   0  0  0  1  0  0  0  0  0  0  0  0
   -2.1888    3.9813    1.1199 C   0  0  0  1  0  0  0  0  0  0  0  0
   -3.5719    3.9313    1.0424 C   0  0  0  1  0  0  0  0  0  0  0  0
   -4.2963    5.0937    0.8570 C   0  0  0  1  0  0  0  0  0  0  0  0
   -3.6399    6.3103    0.7541 C   0  0  0  1  0  0  0  0  0  0  0  0
   -1.3975    2.7098    1.3166 C   0  0  0  1  0  0  0  0  0  0  0  0
   -0.4971    5.2324    1.0794 H   0  0  0  1  0  0  0  0  0  0  0  0
   -4.0646    3.0190    1.1236 H   0  0  0  1  0  0  0  0  0  0  0  0
   -5.3338    5.0556    0.7949 H   0  0  0  1  0  0  0  0  0  0  0  0
   -4.1852    7.1855    0.6187 H   0  0  0  1  0  0  0  0  0  0  0  0
   -0.6245    2.8970    2.0323 H   0  0  0  1  0  0  0  0  0  0  0  0
   -2.0555    1.9537    1.6910 H   0  0  0  1  0  0  0  0  0  0  0  0
  1  4  1  0  0  0  0
  2  4  1  0  0  0  0
  2  5  2  0  0  0  0
  2  6  1  0  0  0  0
  3  4  1  0  0  0  0
  3  7  1  0  0  0  0
  3  8  1  0  0  0  0
  4 26  1  0  0  0  0
  6  9  1  0  0  0  0
  6 12  1  0  0  0  0
  8 10  1  0  0  0  0
  8 11  2  0  0  0  0
  9 13  1  0  0  0  0
  9 14  1  0  0  0  0
  9 15  1  0  0  0  0
 10 16  1  0  0  0  0
 10 17  1  0  0  0  0
 10 18  1  0  0  0  0
 19 20  1  0  0  0  0
 20 21  4  0  0  0  0
 20 25  4  0  0  0  0
 21 22  4  0  0  0  0
 21 27  1  0  0  0  0
 22 23  4  0  0  0  0
 22 26  1  0  0  0  0
 23 24  4  0  0  0  0
 23 28  1  0  0  0  0
 24 25  4  0  0  0  0
 24 29  1  0  0  0  0
 25 30  1  0  0  0  0
 26 31  1  0  0  0  0
 26 32  1  0  0  0  0
M  END
> <BCLConfClusterSize>
1

> <ConfClashScore>
0 

> <ConfOneFourInteractionScore>
-0.979134 

> <ConfScore>
0.127499 

> <ConfScorePBest>
0.00336236 

> <ConfTolerance>
0.574346 

> <RosettaParamsInstructions>
M  ROOT 3
M  POLY_N_BB 3
M  POLY_CA_BB 4
M  POLY_C_BB 2
M  POLY_O_BB 5
M  POLY_IGNORE 9 10 11 12 13 14 15 16 17 18 
M  POLY_UPPER 6
M  POLY_LOWER 8
M  POLY_CHG 0
M  POLY_PROPERTIES ALPHA_AA L_AA PROTEIN AROMATIC POLYMER 
M  END

$$$$



 32 32  0  0  0  0  0  0  0  0999 V2000
    0.4049    3.3885    0.5076 H   0  0  0  1  0  0  0  0  0  0  0  0
    0.5038    3.5052    2.6375 C   0  0  0  1  0  0  0  0  0  0  0  0
    0.6404    1.4630    1.2751 N   0  0  0  1  0  0  0  0  0  0  0  0
    0.0800    2.8078    1.3455 C   0  0  0  1  0  0  0  0  0  0  0  0
    0.3390    2.9737    3.7324 O   0  0  0  1  0  0  0  0  0  0  0  0
    1.0563    4.7129    2.4910 N   0  0  0  1  0  0  0  0  0  0  0  0
    0.4129    0.8019    1.9619 H   0  0  0  1  0  0  0  0  0  0  0  0
    1.4819    1.1230    0.2536 C   0  0  0  1  0  0  0  0  0  0  0  0
    1.5226    5.4494    3.6563 C   0  0  0  1  0  0  0  0  0  0  0  0
    2.0458   -0.2647    0.3769 C   0  0  0  1  0  0  0  0  0  0  0  0
    1.7341    1.8897   -0.6575 O   0  0  0  1  0  0  0  0  0  0  0  0
    1.1476    5.1035    1.5968 H   0  0  0  1  0  0  0  0  0  0  0  0
    0.8535    5.2838    4.4747 H   0  0  0  1  0  0  0  0  0  0  0  0
    1.5549    6.4943    3.4280 H   0  0  0  1  0  0  0  0  0  0  0  0
    2.5022    5.1116    3.9228 H   0  0  0  1  0  0  0  0  0  0  0  0
    1.3743   -0.9645   -0.0751 H   0  0  0  1  0  0  0  0  0  0  0  0
    2.1709   -0.5080    1.4114 H   0  0  0  1  0  0  0  0  0  0  0  0
    2.9935   -0.3096   -0.1177 H   0  0  0  1  0  0  0  0  0  0  0  0
   -1.5964    7.5319    0.7289 F   0  0  0  1  0  0  0  0  0  0  0  0
   -2.2670    6.3683    0.8300 C   0  0  0  1  0  0  0  0  0  0  0  0
   -1.5337    5.2067    1.0158 C   0  0  0  1  0  0  0  0  0  0  0  0
   -2.1808    3.9899    1.1194 C   0  0  0  1  0  0  0  0  0  0  0  0
   -3.5636    3.9317    1.0428 C   0  0  0  1  0  0  0  0  0  0  0  0
   -4.2950    5.0898    0.8576 C   0  0  0  1  0  0  0  0  0  0  0  0
   -3.6458    6.3102    0.7537 C   0  0  0  1  0  0  0  0  0  0  0  0
   -1.4352    2.6912    1.3165 C   0  0  0  1  0  0  0  0  0  0  0  0
   -0.4965    5.2509    1.0772 H   0  0  0  1  0  0  0  0  0  0  0  0
   -4.0509    3.0166    1.1248 H   0  0  0  1  0  0  0  0  0  0  0  0
   -5.3322    5.0456    0.7962 H   0  0  0  1  0  0  0  0  0  0  0  0
   -4.1963    7.1821    0.6184 H   0  0  0  1  0  0  0  0  0  0  0  0
   -1.7515    2.2669    2.2464 H   0  0  0  1  0  0  0  0  0  0  0  0
   -1.7003    2.0335    0.5152 H   0  0  0  1  0  0  0  0  0  0  0  0
  1  4  1  0  0  0  0
  2  4  1  0  0  0  0
  2  5  2  0  0  0  0
  2  6  1  0  0  0  0
  3  4  1  0  0  0  0
  3  7  1  0  0  0  0
  3  8  1  0  0  0  0
  4 26  1  0  0  0  0
  6  9  1  0  0  0  0
  6 12  1  0  0  0  0
  8 10  1  0  0  0  0
  8 11  2  0  0  0  0
  9 13  1  0  0  0  0
  9 14  1  0  0  0  0
  9 15  1  0  0  0  0
 10 16  1  0  0  0  0
 10 17  1  0  0  0  0
 10 18  1  0  0  0  0
 19 20  1  0  0  0  0
 20 21  4  0  0  0  0
 20 25  4  0  0  0  0
 21 22  4  0  0  0  0
 21 27  1  0  0  0  0
 22 23  4  0  0  0  0
 22 26  1  0  0  0  0
 23 24  4  0  0  0  0
 23 28  1  0  0  0  0
 24 25  4  0  0  0  0
 24 29  1  0  0  0  0
 25 30  1  0  0  0  0
 26 31  1  0  0  0  0
 26 32  1  0  0  0  0
M  END
> <BCLConfClusterSize>
1

> <ConfClashScore>
0 

> <ConfOneFourInteractionScore>
-0.970686 

> <ConfScore>
0.133704 

> <ConfScorePBest>
0.00333388 

> <ConfTolerance>
0.755257 

> <RosettaParamsInstructions>
M  ROOT 3
M  POLY_N_BB 3
M  POLY_CA_BB 4
M  POLY_C_BB 2
M  POLY_O_BB 5
M  POLY_IGNORE 9 10 11 12 13 14 15 16 17 18 
M  POLY_UPPER 6
M  POLY_LOWER 8
M  POLY_CHG 0
M  POLY_PROPERTIES ALPHA_AA L_AA PROTEIN AROMATIC POLYMER 
M  END

$$$$



 32 32  0  0  0  0  0  0  0  0999 V2000
   -1.4429    1.4957   -0.4243 H   0  0  0  1  0  0  0  0  0  0  0  0
   -0.5599    3.3616   -0.9220 C   0  0  0  1  0  0  0  0  0  0  0  0
    0.4984    1.5302    0.3221 N   0  0  0  1  0  0  0  0  0  0  0  0
   -0.7694    2.1928    0.0290 C   0  0  0  1  0  0  0  0  0  0  0  0
   -1.4489    3.7270   -1.6900 O   0  0  0  1  0  0  0  0  0  0  0  0
    0.6435    3.9536   -0.8623 N   0  0  0  1  0  0  0  0  0  0  0  0
    0.8170    1.5073    1.2486 H   0  0  0  1  0  0  0  0  0  0  0  0
    1.2401    0.9532   -0.6301 C   0  0  0  1  0  0  0  0  0  0  0  0
    1.0291    5.1043   -1.6655 C   0  0  0  1  0  0  0  0  0  0  0  0
    2.5536    0.3525   -0.1685 C   0  0  0  1  0  0  0  0  0  0  0  0
    0.8957    0.9036   -1.8080 O   0  0  0  1  0  0  0  0  0  0  0  0
    1.3044    3.5875   -0.2382 H   0  0  0  1  0  0  0  0  0  0  0  0
    2.0963    5.1646   -1.7138 H   0  0  0  1  0  0  0  0  0  0  0  0
    0.6415    5.9963   -1.2194 H   0  0  0  1  0  0  0  0  0  0  0  0
    0.6330    4.9980   -2.6538 H   0  0  0  1  0  0  0  0  0  0  0  0
    2.5890    0.3501    0.9009 H   0  0  0  1  0  0  0  0  0  0  0  0
    3.3658    0.9350   -0.5506 H   0  0  0  1  0  0  0  0  0  0  0  0
    2.6330   -0.6514   -0.5301 H   0  0  0  1  0  0  0  0  0  0  0  0
   -1.6228    7.5417    0.7261 F   0  0  0  1  0  0  0  0  0  0  0  0
   -2.2608    6.3603    0.8314 C   0  0  0  1  0  0  0  0  0  0  0  0
   -1.5345    5.1943    1.0172 C   0  0  0  1  0  0  0  0  0  0  0  0
   -2.1888    3.9813    1.1199 C   0  0  0  1  0  0  0  0  0  0  0  0
   -3.5719    3.9313    1.0424 C   0  0  0  1  0  0  0  0  0  0  0  0
   -4.2963    5.0937    0.8570 C   0  0  0  1  0  0  0  0  0  0  0  0
   -3.6399    6.3103    0.7541 C   0  0  0  1  0  0  0  0  0  0  0  0
   -1.3975    2.7098    1.3166 C   0  0  0  1  0  0  0  0  0  0  0  0
   -0.4971    5.2324    1.0794 H   0  0  0  1  0  0  0  0  0  0  0  0
   -4.0646    3.0190    1.1236 H   0  0  0  1  0  0  0  0  0  0  0  0
   -5.3338    5.0556    0.7949 H   0  0  0  1  0  0  0  0  0  0  0  0
   -4.1852    7.1855    0.6187 H   0  0  0  1  0  0  0  0  0  0  0  0
   -0.6173    2.9002    2.0236 H   0  0  0  1  0  0  0  0  0  0  0  0
   -2.0530    1.9569    1.7020 H   0  0  0  1  0  0  0  0  0  0  0  0
  1  4  1  0  0  0  0
  2  4  1  0  0  0  0
  2  5  2  0  0  0  0
  2  6  1  0  0  0  0
  3  4  1  0  0  0  0
  3  7  1  0  0  0  0
  3  8  1  0  0  0  0
  4 26  1  0  0  0  0
  6  9  1  0  0  0  0
  6 12  1  0  0  0  0
  8 10  1  0  0  0  0
  8 11  2  0  0  0  0
  9 13  1  0  0  0  0
  9 14  1  0  0  0  0
  9 15  1  0  0  0  0
 10 16  1  0  0  0  0
 10 17  1  0  0  0  0
 10 18  1  0  0  0  0
 19 20  1  0  0  0  0
 20 21  4  0  0  0  0
 20 25  4  0  0  0  0
 21 22  4  0  0  0  0
 21 27  1  0  0  0  0
 22 23  4  0  0  0  0
 22 26  1  0  0  0  0
 23 24  4  0  0  0  0
 23 28  1  0  0  0  0
 24 25  4  0  0  0  0
 24 29  1  0  0  0  0
 25 30  1  0  0  0  0
 26 31  1  0  0  0  0
 26 32  1  0  0  0  0
M  END
> <BCLConfClusterSize>
1

> <ConfClashScore>
0 

> <ConfOneFourInteractionScore>
-0.942345 

> <ConfScore>
0.136827 

> <ConfScorePBest>
0.0033054 

> <ConfTolerance>
0.973656 

> <RosettaParamsInstructions>
M  ROOT 3
M  POLY_N_BB 3
M  POLY_CA_BB 4
M  POLY_C_BB 2
M  POLY_O_BB 5
M  POLY_IGNORE 9 10 11 12 13 14 15 16 17 18 
M  POLY_UPPER 6
M  POLY_LOWER 8
M  POLY_CHG 0
M  POLY_PROPERTIES ALPHA_AA L_AA PROTEIN AROMATIC POLYMER 
M  END

$$$$



 32 32  0  0  0  0  0  0  0  0999 V2000
   -2.9028    1.5762    2.1559 H   0  0  0  1  0  0  0  0  0  0  0  0
   -2.8328    1.0954    0.1036 C   0  0  0  1  0  0  0  0  0  0  0  0
   -1.2622    0.3651    1.8810 N   0  0  0  1  0  0  0  0  0  0  0  0
   -2.1384    1.4322    1.4212 C   0  0  0  1  0  0  0  0  0  0  0  0
   -2.1938    0.8787   -0.9251 O   0  0  0  1  0  0  0  0  0  0  0  0
   -4.1719    1.0636    0.1923 N   0  0  0  1  0  0  0  0  0  0  0  0
   -0.4721    0.1204    1.3553 H   0  0  0  1  0  0  0  0  0  0  0  0
   -1.5326   -0.2818    3.0183 C   0  0  0  1  0  0  0  0  0  0  0  0
   -5.0760    0.8446   -0.9269 C   0  0  0  1  0  0  0  0  0  0  0  0
   -0.5358   -1.3512    3.4209 C   0  0  0  1  0  0  0  0  0  0  0  0
   -2.5203   -0.0395    3.7068 O   0  0  0  1  0  0  0  0  0  0  0  0
   -4.5707    1.1981    1.0773 H   0  0  0  1  0  0  0  0  0  0  0  0
   -6.0882    0.8997   -0.5844 H   0  0  0  1  0  0  0  0  0  0  0  0
   -4.8943   -0.1222   -1.3479 H   0  0  0  1  0  0  0  0  0  0  0  0
   -4.9102    1.5952   -1.6712 H   0  0  0  1  0  0  0  0  0  0  0  0
   -0.3863   -2.0258    2.6040 H   0  0  0  1  0  0  0  0  0  0  0  0
   -0.9132   -1.8908    4.2643 H   0  0  0  1  0  0  0  0  0  0  0  0
    0.3954   -0.8915    3.6786 H   0  0  0  1  0  0  0  0  0  0  0  0
   -1.5886    7.5181    0.7310 F   0  0  0  1  0  0  0  0  0  0  0  0
   -2.2671    6.3589    0.8311 C   0  0  0  1  0  0  0  0  0  0  0  0
   -1.5418    5.1924    1.0170 C   0  0  0  1  0  0  0  0  0  0  0  0
   -2.1972    3.9799    1.1195 C   0  0  0  1  0  0  0  0  0  0  0  0
   -3.5803    3.9310    1.0419 C   0  0  0  1  0  0  0  0  0  0  0  0
   -4.3037    5.0941    0.8565 C   0  0  0  1  0  0  0  0  0  0  0  0
   -3.6462    6.3101    0.7537 C   0  0  0  1  0  0  0  0  0  0  0  0
   -1.3583    2.7392    1.3155 C   0  0  0  1  0  0  0  0  0  0  0  0
   -0.5044    5.2295    1.0793 H   0  0  0  1  0  0  0  0  0  0  0  0
   -4.0737    3.0192    1.1230 H   0  0  0  1  0  0  0  0  0  0  0  0
   -5.3412    5.0569    0.7942 H   0  0  0  1  0  0  0  0  0  0  0  0
   -4.1907    7.1858    0.6183 H   0  0  0  1  0  0  0  0  0  0  0  0
   -0.6896    2.6582    0.4841 H   0  0  0  1  0  0  0  0  0  0  0  0
   -0.7945    2.8609    2.2167 H   0  0  0  1  0  0  0  0  0  0  0  0
  1  4  1  0  0  0  0
  2  4  1  0  0  0  0
  2  5  2  0  0  0  0
  2  6  1  0  0  0  0
  3  4  1  0  0  0  0
  3  7  1  0  0  0  0
  3  8  1  0  0  0  0
  4 26  1  0  0  0  0
  6  9  1  0  0  0  0
  6 12  1  0  0  0  0
  8 10  1  0  0  0  0
  8 11  2  0  0  0  0
  9 13  1  0  0  0  0
  9 14  1  0  0  0  0
  9 15  1  0  0  0  0
 10 16  1  0  0  0  0
 10 17  1  0  0  0  0
 10 18  1  0  0  0  0
 19 20  1  0  0  0  0
 20 21  4  0  0  0  0
 20 25  4  0  0  0  0
 21 22  4  0  0  0  0
 21 27  1  0  0  0  0
 22 23  4  0  0  0  0
 22 26  1  0  0  0  0
 23 24  4  0  0  0  0
 23 28  1  0  0  0  0
 24 25  4  0  0  0  0
 24 29  1  0  0  0  0
 25 30  1  0  0  0  0
 26 31  1  0  0  0  0
 26 32  1  0  0  0  0
M  END
> <BCLConfClusterSize>
1

> <ConfClashScore>
0 

> <ConfOneFourInteractionScore>
-0.970686 

> <ConfScore>
0.137835 

> <ConfScorePBest>
0.00327691 

> <ConfTolerance>
0.83533 

> <RosettaParamsInstructions>
M  ROOT 3
M  POLY_N_BB 3
M  POLY_CA_BB 4
M  POLY_C_BB 2
M  POLY_O_BB 5
M  POLY_IGNORE 9 10 11 12 13 14 15 16 17 18 
M  POLY_UPPER 6
M  POLY_LOWER 8
M  POLY_CHG 0
M  POLY_PROPERTIES ALPHA_AA L_AA PROTEIN AROMATIC POLYMER 
M  END

$$$$



 32 32  0  0  0  0  0  0  0  0999 V2000
    0.4669    3.4105    0.4636 H   0  0  0  1  0  0  0  0  0  0  0  0
    0.4876    1.2905    0.4701 C   0  0  0  1  0  0  0  0  0  0  0  0
   -0.7299    2.6745   -1.0691 N   0  0  0  1  0  0  0  0  0  0  0  0
   -0.2300    2.6153    0.2998 C   0  0  0  1  0  0  0  0  0  0  0  0
    0.3252    0.6021    1.4741 O   0  0  0  1  0  0  0  0  0  0  0  0
    1.2942    0.9341   -0.5336 N   0  0  0  1  0  0  0  0  0  0  0  0
   -1.2732    1.9476   -1.4391 H   0  0  0  1  0  0  0  0  0  0  0  0
   -0.4164    3.7819   -1.8276 C   0  0  0  1  0  0  0  0  0  0  0  0
    2.1763   -0.2233   -0.5229 C   0  0  0  1  0  0  0  0  0  0  0  0
   -0.9856    3.8087   -3.2161 C   0  0  0  1  0  0  0  0  0  0  0  0
    0.2826    4.6620   -1.3622 O   0  0  0  1  0  0  0  0  0  0  0  0
    1.2917    1.4944   -1.3377 H   0  0  0  1  0  0  0  0  0  0  0  0
    2.2171   -0.6504   -1.5031 H   0  0  0  1  0  0  0  0  0  0  0  0
    1.8019   -0.9503    0.1673 H   0  0  0  1  0  0  0  0  0  0  0  0
    3.1583    0.0796   -0.2249 H   0  0  0  1  0  0  0  0  0  0  0  0
   -2.0539    3.7772   -3.1648 H   0  0  0  1  0  0  0  0  0  0  0  0
   -0.6299    2.9610   -3.7636 H   0  0  0  1  0  0  0  0  0  0  0  0
   -0.6789    4.7071   -3.7098 H   0  0  0  1  0  0  0  0  0  0  0  0
   -1.5886    7.5181    0.7310 F   0  0  0  1  0  0  0  0  0  0  0  0
   -2.2671    6.3589    0.8311 C   0  0  0  1  0  0  0  0  0  0  0  0
   -1.5418    5.1924    1.0170 C   0  0  0  1  0  0  0  0  0  0  0  0
   -2.1972    3.9799    1.1195 C   0  0  0  1  0  0  0  0  0  0  0  0
   -3.5803    3.9310    1.0419 C   0  0  0  1  0  0  0  0  0  0  0  0
   -4.3037    5.0941    0.8565 C   0  0  0  1  0  0  0  0  0  0  0  0
   -3.6462    6.3101    0.7537 C   0  0  0  1  0  0  0  0  0  0  0  0
   -1.3583    2.7392    1.3155 C   0  0  0  1  0  0  0  0  0  0  0  0
   -0.5044    5.2295    1.0793 H   0  0  0  1  0  0  0  0  0  0  0  0
   -4.0737    3.0192    1.1230 H   0  0  0  1  0  0  0  0  0  0  0  0
   -5.3412    5.0569    0.7942 H   0  0  0  1  0  0  0  0  0  0  0  0
   -4.1907    7.1858    0.6183 H   0  0  0  1  0  0  0  0  0  0  0  0
   -0.9318    2.7678    2.2964 H   0  0  0  1  0  0  0  0  0  0  0  0
   -1.9922    1.8818    1.2265 H   0  0  0  1  0  0  0  0  0  0  0  0
  1  4  1  0  0  0  0
  2  4  1  0  0  0  0
  2  5  2  0  0  0  0
  2  6  1  0  0  0  0
  3  4  1  0  0  0  0
  3  7  1  0  0  0  0
  3  8  1  0  0  0  0
  4 26  1  0  0  0  0
  6  9  1  0  0  0  0
  6 12  1  0  0  0  0
  8 10  1  0  0  0  0
  8 11  2  0  0  0  0
  9 13  1  0  0  0  0
  9 14  1  0  0  0  0
  9 15  1  0  0  0  0
 10 16  1  0  0  0  0
 10 17  1  0  0  0  0
 10 18  1  0  0  0  0
 19 20  1  0  0  0  0
 20 21  4  0  0  0  0
 20 25  4  0  0  0  0
 21 22  4  0  0  0  0
 21 27  1  0  0  0  0
 22 23  4  0  0  0  0
 22 26  1  0  0  0  0
 23 24  4  0  0  0  0
 23 28  1  0  0  0  0
 24 25  4  0  0  0  0
 24 29  1  0  0  0  0
 25 30  1  0  0  0  0
 26 31  1  0  0  0  0
 26 32  1  0  0  0  0
M  END
> <BCLConfClusterSize>
1

> <ConfClashScore>
0 

> <ConfOneFourInteractionScore>
-0.94194 

> <ConfScore>
0.138413 

> <ConfScorePBest>
0.00324843 

> <ConfTolerance>
0.716645 

> <RosettaParamsInstructions>
M  ROOT 3
M  POLY_N_BB 3
M  POLY_CA_BB 4
M  POLY_C_BB 2
M  POLY_O_BB 5
M  POLY_IGNORE 9 10 11 12 13 14 15 16 17 18 
M  POLY_UPPER 6
M  POLY_LOWER 8
M  POLY_CHG 0
M  POLY_PROPERTIES ALPHA_AA L_AA PROTEIN AROMATIC POLYMER 
M  END

$$$$



 32 32  0  0  0  0  0  0  0  0999 V2000
   -1.8738    2.0020   -0.6155 H   0  0  0  1  0  0  0  0  0  0  0  0
   -0.0637    3.0484   -0.7844 C   0  0  0  1  0  0  0  0  0  0  0  0
   -0.4023    0.7939    0.1638 N   0  0  0  1  0  0  0  0  0  0  0  0
   -0.9837    2.1135   -0.0324 C   0  0  0  1  0  0  0  0  0  0  0  0
    1.1470    2.8355   -0.8366 O   0  0  0  1  0  0  0  0  0  0  0  0
   -0.6051    4.1114   -1.3897 N   0  0  0  1  0  0  0  0  0  0  0  0
    0.2928    0.6958    0.8476 H   0  0  0  1  0  0  0  0  0  0  0  0
   -0.7560   -0.2925   -0.5288 C   0  0  0  1  0  0  0  0  0  0  0  0
    0.0844    5.1369   -2.1583 C   0  0  0  1  0  0  0  0  0  0  0  0
    0.0930   -1.5272   -0.2964 C   0  0  0  1  0  0  0  0  0  0  0  0
   -1.7049   -0.3089   -1.3084 O   0  0  0  1  0  0  0  0  0  0  0  0
   -1.5765    4.2108   -1.3061 H   0  0  0  1  0  0  0  0  0  0  0  0
    1.0912    5.2293   -1.8081 H   0  0  0  1  0  0  0  0  0  0  0  0
   -0.4216    6.0721   -2.0392 H   0  0  0  1  0  0  0  0  0  0  0  0
    0.0905    4.8633   -3.1928 H   0  0  0  1  0  0  0  0  0  0  0  0
   -0.5297   -2.3972   -0.3133 H   0  0  0  1  0  0  0  0  0  0  0  0
    0.5764   -1.4533    0.6553 H   0  0  0  1  0  0  0  0  0  0  0  0
    0.8313   -1.6023   -1.0672 H   0  0  0  1  0  0  0  0  0  0  0  0
   -1.6228    7.5417    0.7261 F   0  0  0  1  0  0  0  0  0  0  0  0
   -2.2608    6.3603    0.8314 C   0  0  0  1  0  0  0  0  0  0  0  0
   -1.5345    5.1943    1.0172 C   0  0  0  1  0  0  0  0  0  0  0  0
   -2.1888    3.9813    1.1199 C   0  0  0  1  0  0  0  0  0  0  0  0
   -3.5719    3.9313    1.0424 C   0  0  0  1  0  0  0  0  0  0  0  0
   -4.2963    5.0937    0.8570 C   0  0  0  1  0  0  0  0  0  0  0  0
   -3.6399    6.3103    0.7541 C   0  0  0  1  0  0  0  0  0  0  0  0
   -1.3975    2.7098    1.3166 C   0  0  0  1  0  0  0  0  0  0  0  0
   -0.4971    5.2324    1.0794 H   0  0  0  1  0  0  0  0  0  0  0  0
   -4.0646    3.0190    1.1236 H   0  0  0  1  0  0  0  0  0  0  0  0
   -5.3338    5.0556    0.7949 H   0  0  0  1  0  0  0  0  0  0  0  0
   -4.1852    7.1855    0.6187 H   0  0  0  1  0  0  0  0  0  0  0  0
   -0.5195    2.9279    1.8879 H   0  0  0  1  0  0  0  0  0  0  0  0
   -1.9998    1.9999    1.8440 H   0  0  0  1  0  0  0  0  0  0  0  0
  1  4  1  0  0  0  0
  2  4  1  0  0  0  0
  2  5  2  0  0  0  0
  2  6  1  0  0  0  0
  3  4  1  0  0  0  0
  3  7  1  0  0  0  0
  3  8  1  0  0  0  0
  4 26  1  0  0  0  0
  6  9  1  0  0  0  0
  6 12  1  0  0  0  0
  8 10  1  0  0  0  0
  8 11  2  0  0  0  0
  9 13  1  0  0  0  0
  9 14  1  0  0  0  0
  9 15  1  0  0  0  0
 10 16  1  0  0  0  0
 10 17  1  0  0  0  0
 10 18  1  0  0  0  0
 19 20  1  0  0  0  0
 20 21  4  0  0  0  0
 20 25  4  0  0  0  0
 21 22  4  0  0  0  0
 21 27  1  0  0  0  0
 22 23  4  0  0  0  0
 22 26  1  0  0  0  0
 23 24  4  0  0  0  0
 23 28  1  0  0  0  0
 24 25  4  0  0  0  0
 24 29  1  0  0  0  0
 25 30  1  0  0  0  0
 26 31  1  0  0  0  0
 26 32  1  0  0  0  0
M  END
> <BCLConfClusterSize>
1

> <ConfClashScore>
0 

> <ConfOneFourInteractionScore>
-0.985807 

> <ConfScore>
0.141199 

> <ConfScorePBest>
0.00321995 

> <ConfTolerance>
0.82404 

> <RosettaParamsInstructions>
M  ROOT 3
M  POLY_N_BB 3
M  POLY_CA_BB 4
M  POLY_C_BB 2
M  POLY_O_BB 5
M  POLY_IGNORE 9 10 11 12 13 14 15 16 17 18 
M  POLY_UPPER 6
M  POLY_LOWER 8
M  POLY_CHG 0
M  POLY_PROPERTIES ALPHA_AA L_AA PROTEIN AROMATIC POLYMER 
M  END

$$$$



 32 32  0  0  0  0  0  0  0  0999 V2000
   -0.9498    1.3871    2.9134 H   0  0  0  1  0  0  0  0  0  0  0  0
    0.3080    3.0744    3.0676 C   0  0  0  1  0  0  0  0  0  0  0  0
   -2.0394    2.9497    3.7127 N   0  0  0  1  0  0  0  0  0  0  0  0
   -1.0418    2.4451    2.7828 C   0  0  0  1  0  0  0  0  0  0  0  0
    1.3139    2.4161    2.8158 O   0  0  0  1  0  0  0  0  0  0  0  0
    0.3337    4.3147    3.5787 N   0  0  0  1  0  0  0  0  0  0  0  0
   -2.8808    3.3047    3.3570 H   0  0  0  1  0  0  0  0  0  0  0  0
   -1.8489    2.9462    5.0351 C   0  0  0  1  0  0  0  0  0  0  0  0
    1.6036    4.9979    3.7752 C   0  0  0  1  0  0  0  0  0  0  0  0
   -2.8369    3.7565    5.8432 C   0  0  0  1  0  0  0  0  0  0  0  0
   -0.9337    2.3290    5.5784 O   0  0  0  1  0  0  0  0  0  0  0  0
   -0.5044    4.7614    3.8203 H   0  0  0  1  0  0  0  0  0  0  0  0
    2.3422    4.2935    4.0964 H   0  0  0  1  0  0  0  0  0  0  0  0
    1.4881    5.7576    4.5198 H   0  0  0  1  0  0  0  0  0  0  0  0
    1.9141    5.4449    2.8540 H   0  0  0  1  0  0  0  0  0  0  0  0
   -3.5535    4.2041    5.1866 H   0  0  0  1  0  0  0  0  0  0  0  0
   -2.3161    4.5230    6.3782 H   0  0  0  1  0  0  0  0  0  0  0  0
   -3.3404    3.1160    6.5368 H   0  0  0  1  0  0  0  0  0  0  0  0
   -1.6228    7.5417    0.7261 F   0  0  0  1  0  0  0  0  0  0  0  0
   -2.2608    6.3603    0.8314 C   0  0  0  1  0  0  0  0  0  0  0  0
   -1.5345    5.1943    1.0172 C   0  0  0  1  0  0  0  0  0  0  0  0
   -2.1888    3.9813    1.1199 C   0  0  0  1  0  0  0  0  0  0  0  0
   -3.5719    3.9313    1.0424 C   0  0  0  1  0  0  0  0  0  0  0  0
   -4.2963    5.0937    0.8570 C   0  0  0  1  0  0  0  0  0  0  0  0
   -3.6399    6.3103    0.7541 C   0  0  0  1  0  0  0  0  0  0  0  0
   -1.3975    2.7098    1.3166 C   0  0  0  1  0  0  0  0  0  0  0  0
   -0.4971    5.2324    1.0794 H   0  0  0  1  0  0  0  0  0  0  0  0
   -4.0646    3.0190    1.1236 H   0  0  0  1  0  0  0  0  0  0  0  0
   -5.3338    5.0556    0.7949 H   0  0  0  1  0  0  0  0  0  0  0  0
   -4.1852    7.1855    0.6187 H   0  0  0  1  0  0  0  0  0  0  0  0
   -1.9781    1.8877    0.9532 H   0  0  0  1  0  0  0  0  0  0  0  0
   -0.4904    2.7828    0.7539 H   0  0  0  1  0  0  0  0  0  0  0  0
  1  4  1  0  0  0  0
  2  4  1  0  0  0  0
  2  5  2  0  0  0  0
  2  6  1  0  0  0  0
  3  4  1  0  0  0  0
  3  7  1  0  0  0  0
  3  8  1  0  0  0  0
  4 26  1  0  0  0  0
  6  9  1  0  0  0  0
  6 12  1  0  0  0  0
  8 10  1  0  0  0  0
  8 11  2  0  0  0  0
  9 13  1  0  0  0  0
  9 14  1  0  0  0  0
  9 15  1  0  0  0  0
 10 16  1  0  0  0  0
 10 17  1  0  0  0  0
 10 18  1  0  0  0  0
 19 20  1  0  0  0  0
 20 21  4  0  0  0  0
 20 25  4  0  0  0  0
 21 22  4  0  0  0  0
 21 27  1  0  0  0  0
 22 23  4  0  0  0  0
 22 26  1  0  0  0  0
 23 24  4  0  0  0  0
 23 28  1  0  0  0  0
 24 25  4  0  0  0  0
 24 29  1  0  0  0  0
 25 30  1  0  0  0  0
 26 31  1  0  0  0  0
 26 32  1  0  0  0  0
M  END
> <BCLConfClusterSize>
1

> <ConfClashScore>
0 

> <ConfOneFourInteractionScore>
-0.928132 

> <ConfScore>
0.14289 

> <ConfScorePBest>
0.00319147 

> <ConfTolerance>
0.819743 

> <RosettaParamsInstructions>
M  ROOT 3
M  POLY_N_BB 3
M  POLY_CA_BB 4
M  POLY_C_BB 2
M  POLY_O_BB 5
M  POLY_IGNORE 9 10 11 12 13 14 15 16 17 18 
M  POLY_UPPER 6
M  POLY_LOWER 8
M  POLY_CHG 0
M  POLY_PROPERTIES ALPHA_AA L_AA PROTEIN AROMATIC POLYMER 
M  END

$$$$



 32 32  0  0  0  0  0  0  0  0999 V2000
   -0.1716    3.8345    2.6237 H   0  0  0  1  0  0  0  0  0  0  0  0
   -0.9965    2.2397    3.7432 C   0  0  0  1  0  0  0  0  0  0  0  0
    0.8337    2.0960    2.1322 N   0  0  0  1  0  0  0  0  0  0  0  0
   -0.3963    2.8011    2.4606 C   0  0  0  1  0  0  0  0  0  0  0  0
   -1.5824    2.9656    4.5449 O   0  0  0  1  0  0  0  0  0  0  0  0
   -0.8417    0.9194    3.9303 N   0  0  0  1  0  0  0  0  0  0  0  0
    0.9340    1.7122    1.2361 H   0  0  0  1  0  0  0  0  0  0  0  0
    1.8321    1.9534    3.0110 C   0  0  0  1  0  0  0  0  0  0  0  0
   -1.2501    0.2553    5.1591 C   0  0  0  1  0  0  0  0  0  0  0  0
    2.8764    0.9191    2.6566 C   0  0  0  1  0  0  0  0  0  0  0  0
    1.9122    2.6128    4.0466 O   0  0  0  1  0  0  0  0  0  0  0  0
   -0.4397    0.3842    3.2145 H   0  0  0  1  0  0  0  0  0  0  0  0
   -0.7428   -0.6831    5.2436 H   0  0  0  1  0  0  0  0  0  0  0  0
   -2.3068    0.0887    5.1400 H   0  0  0  1  0  0  0  0  0  0  0  0
   -1.0008    0.8719    5.9973 H   0  0  0  1  0  0  0  0  0  0  0  0
    2.9074    0.1676    3.4176 H   0  0  0  1  0  0  0  0  0  0  0  0
    3.8340    1.3905    2.5821 H   0  0  0  1  0  0  0  0  0  0  0  0
    2.6268    0.4672    1.7194 H   0  0  0  1  0  0  0  0  0  0  0  0
   -1.6228    7.5417    0.7261 F   0  0  0  1  0  0  0  0  0  0  0  0
   -2.2608    6.3603    0.8314 C   0  0  0  1  0  0  0  0  0  0  0  0
   -1.5345    5.1943    1.0172 C   0  0  0  1  0  0  0  0  0  0  0  0
   -2.1888    3.9813    1.1199 C   0  0  0  1  0  0  0  0  0  0  0  0
   -3.5719    3.9313    1.0424 C   0  0  0  1  0  0  0  0  0  0  0  0
   -4.2963    5.0937    0.8570 C   0  0  0  1  0  0  0  0  0  0  0  0
   -3.6399    6.3103    0.7541 C   0  0  0  1  0  0  0  0  0  0  0  0
   -1.3975    2.7098    1.3166 C   0  0  0  1  0  0  0  0  0  0  0  0
   -0.4971    5.2324    1.0794 H   0  0  0  1  0  0  0  0  0  0  0  0
   -4.0646    3.0190    1.1236 H   0  0  0  1  0  0  0  0  0  0  0  0
   -5.3338    5.0556    0.7949 H   0  0  0  1  0  0  0  0  0  0  0  0
   -4.1852    7.1855    0.6187 H   0  0  0  1  0  0  0  0  0  0  0  0
   -2.0802    1.9125    1.5243 H   0  0  0  1  0  0  0  0  0  0  0  0
   -0.8644    2.4974    0.4135 H   0  0  0  1  0  0  0  0  0  0  0  0
  1  4  1  0  0  0  0
  2  4  1  0  0  0  0
  2  5  2  0  0  0  0
  2  6  1  0  0  0  0
  3  4  1  0  0  0  0
  3  7  1  0  0  0  0
  3  8  1  0  0  0  0
  4 26  1  0  0  0  0
  6  9  1  0  0  0  0
  6 12  1  0  0  0  0
  8 10  1  0  0  0  0
  8 11  2  0  0  0  0
  9 13  1  0  0  0  0
  9 14  1  0  0  0  0
  9 15  1  0  0  0  0
 10 16  1  0  0  0  0
 10 17  1  0  0  0  0
 10 18  1  0  0  0  0
 19 20  1  0  0  0  0
 20 21  4  0  0  0  0
 20 25  4  0  0  0  0
 21 22  4  0  0  0  0
 21 27  1  0  0  0  0
 22 23  4  0  0  0  0
 22 26  1  0  0  0  0
 23 24  4  0  0  0  0
 23 28  1  0  0  0  0
 24 25  4  0  0  0  0
 24 29  1  0  0  0  0
 25 30  1  0  0  0  0
 26 31  1  0  0  0  0
 26 32  1  0  0  0  0
M  END
> <BCLConfClusterSize>
1

> <ConfClashScore>
0 

> <ConfOneFourInteractionScore>
-0.948834 

> <ConfScore>
0.146897 

> <ConfScorePBest>
0.00316299 

> <ConfTolerance>
0.78508 

> <RosettaParamsInstructions>
M  ROOT 3
M  POLY_N_BB 3
M  POLY_CA_BB 4
M  POLY_C_BB 2
M  POLY_O_BB 5
M  POLY_IGNORE 9 10 11 12 13 14 15 16 17 18 
M  POLY_UPPER 6
M  POLY_LOWER 8
M  POLY_CHG 0
M  POLY_PROPERTIES ALPHA_AA L_AA PROTEIN AROMATIC POLYMER 
M  END

$$$$



 32 32  0  0  0  0  0  0  0  0999 V2000
   -0.1017    2.9839   -0.3121 H   0  0  0  1  0  0  0  0  0  0  0  0
    0.2569    1.0542    0.4286 C   0  0  0  1  0  0  0  0  0  0  0  0
   -1.6674    1.7982   -0.9329 N   0  0  0  1  0  0  0  0  0  0  0  0
   -0.6897    2.1803    0.0798 C   0  0  0  1  0  0  0  0  0  0  0  0
    0.2705    0.0112   -0.2315 O   0  0  0  1  0  0  0  0  0  0  0  0
    1.0841    1.2238    1.4809 N   0  0  0  1  0  0  0  0  0  0  0  0
   -2.5367    1.4638   -0.6282 H   0  0  0  1  0  0  0  0  0  0  0  0
   -1.4537    1.8749   -2.2467 C   0  0  0  1  0  0  0  0  0  0  0  0
    1.9308    0.1282    1.9288 C   0  0  0  1  0  0  0  0  0  0  0  0
   -2.6226    1.4915   -3.1258 C   0  0  0  1  0  0  0  0  0  0  0  0
   -0.3888    2.2299   -2.7276 O   0  0  0  1  0  0  0  0  0  0  0  0
    1.1149    2.0867    1.9445 H   0  0  0  1  0  0  0  0  0  0  0  0
    1.3437   -0.7613    2.0233 H   0  0  0  1  0  0  0  0  0  0  0  0
    2.3599    0.3744    2.8776 H   0  0  0  1  0  0  0  0  0  0  0  0
    2.7112   -0.0340    1.2151 H   0  0  0  1  0  0  0  0  0  0  0  0
   -3.2003    0.7326   -2.6409 H   0  0  0  1  0  0  0  0  0  0  0  0
   -2.2586    1.1196   -4.0607 H   0  0  0  1  0  0  0  0  0  0  0  0
   -3.2361    2.3511   -3.2978 H   0  0  0  1  0  0  0  0  0  0  0  0
   -1.6537    7.5575    0.7223 F   0  0  0  1  0  0  0  0  0  0  0  0
   -2.2545    6.3571    0.8321 C   0  0  0  1  0  0  0  0  0  0  0  0
   -1.5311    5.1894    1.0180 C   0  0  0  1  0  0  0  0  0  0  0  0
   -2.1883    3.9779    1.1203 C   0  0  0  1  0  0  0  0  0  0  0  0
   -3.5715    3.9312    1.0424 C   0  0  0  1  0  0  0  0  0  0  0  0
   -4.2931    5.0954    0.8571 C   0  0  0  1  0  0  0  0  0  0  0  0
   -3.6337    6.3104    0.7545 C   0  0  0  1  0  0  0  0  0  0  0  0
   -1.4001    2.7045    1.3170 C   0  0  0  1  0  0  0  0  0  0  0  0
   -0.4935    5.2249    1.0805 H   0  0  0  1  0  0  0  0  0  0  0  0
   -4.0664    3.0201    1.1234 H   0  0  0  1  0  0  0  0  0  0  0  0
   -5.3306    5.0598    0.7946 H   0  0  0  1  0  0  0  0  0  0  0  0
   -4.1768    7.1869    0.6190 H   0  0  0  1  0  0  0  0  0  0  0  0
   -0.6616    2.8863    2.0696 H   0  0  0  1  0  0  0  0  0  0  0  0
   -2.0759    1.9470    1.6554 H   0  0  0  1  0  0  0  0  0  0  0  0
  1  4  1  0  0  0  0
  2  4  1  0  0  0  0
  2  5  2  0  0  0  0
  2  6  1  0  0  0  0
  3  4  1  0  0  0  0
  3  7  1  0  0  0  0
  3  8  1  0  0  0  0
  4 26  1  0  0  0  0
  6  9  1  0  0  0  0
  6 12  1  0  0  0  0
  8 10  1  0  0  0  0
  8 11  2  0  0  0  0
  9 13  1  0  0  0  0
  9 14  1  0  0  0  0
  9 15  1  0  0  0  0
 10 16  1  0  0  0  0
 10 17  1  0  0  0  0
 10 18  1  0  0  0  0
 19 20  1  0  0  0  0
 20 21  4  0  0  0  0
 20 25  4  0  0  0  0
 21 22  4  0  0  0  0
 21 27  1  0  0  0  0
 22 23  4  0  0  0  0
 22 26  1  0  0  0  0
 23 24  4  0  0  0  0
 23 28  1  0  0  0  0
 24 25  4  0  0  0  0
 24 29  1  0  0  0  0
 25 30  1  0  0  0  0
 26 31  1  0  0  0  0
 26 32  1  0  0  0  0
M  END
> <BCLConfClusterSize>
1

> <ConfClashScore>
0 

> <ConfOneFourInteractionScore>
-0.985807 

> <ConfScore>
0.154965 

> <ConfScorePBest>
0.00313451 

> <ConfTolerance>
0.68098 

> <RosettaParamsInstructions>
M  ROOT 3
M  POLY_N_BB 3
M  POLY_CA_BB 4
M  POLY_C_BB 2
M  POLY_O_BB 5
M  POLY_IGNORE 9 10 11 12 13 14 15 16 17 18 
M  POLY_UPPER 6
M  POLY_LOWER 8
M  POLY_CHG 0
M  POLY_PROPERTIES ALPHA_AA L_AA PROTEIN AROMATIC POLYMER 
M  END

$$$$



 32 32  0  0  0  0  0  0  0  0999 V2000
   -3.1365    1.7526    2.0201 H   0  0  0  1  0  0  0  0  0  0  0  0
   -2.9107    1.1945    0.0034 C   0  0  0  1  0  0  0  0  0  0  0  0
   -1.6197    0.3609    1.9495 N   0  0  0  1  0  0  0  0  0  0  0  0
   -2.3227    1.5012    1.3725 C   0  0  0  1  0  0  0  0  0  0  0  0
   -3.9913    1.6619   -0.3537 O   0  0  0  1  0  0  0  0  0  0  0  0
   -2.1440    0.3849   -0.7441 N   0  0  0  1  0  0  0  0  0  0  0  0
   -0.6783    0.4638    2.2016 H   0  0  0  1  0  0  0  0  0  0  0  0
   -2.2145   -0.8192    2.1462 C   0  0  0  1  0  0  0  0  0  0  0  0
   -2.4994   -0.1146   -2.0640 C   0  0  0  1  0  0  0  0  0  0  0  0
   -1.3810   -1.8663    2.8589 C   0  0  0  1  0  0  0  0  0  0  0  0
   -3.3641   -1.0593    1.7796 O   0  0  0  1  0  0  0  0  0  0  0  0
   -1.2798    0.1094   -0.3730 H   0  0  0  1  0  0  0  0  0  0  0  0
   -1.6485   -0.5877   -2.5079 H   0  0  0  1  0  0  0  0  0  0  0  0
   -2.8157    0.7009   -2.6803 H   0  0  0  1  0  0  0  0  0  0  0  0
   -3.2953   -0.8240   -1.9742 H   0  0  0  1  0  0  0  0  0  0  0  0
   -1.9553   -2.7616    2.9752 H   0  0  0  1  0  0  0  0  0  0  0  0
   -1.0947   -1.4989    3.8222 H   0  0  0  1  0  0  0  0  0  0  0  0
   -0.5047   -2.0774    2.2822 H   0  0  0  1  0  0  0  0  0  0  0  0
   -1.6228    7.5417    0.7261 F   0  0  0  1  0  0  0  0  0  0  0  0
   -2.2608    6.3603    0.8314 C   0  0  0  1  0  0  0  0  0  0  0  0
   -1.5345    5.1943    1.0172 C   0  0  0  1  0  0  0  0  0  0  0  0
   -2.1888    3.9813    1.1199 C   0  0  0  1  0  0  0  0  0  0  0  0
   -3.5719    3.9313    1.0424 C   0  0  0  1  0  0  0  0  0  0  0  0
   -4.2963    5.0937    0.8570 C   0  0  0  1  0  0  0  0  0  0  0  0
   -3.6399    6.3103    0.7541 C   0  0  0  1  0  0  0  0  0  0  0  0
   -1.3975    2.7098    1.3166 C   0  0  0  1  0  0  0  0  0  0  0  0
   -0.4971    5.2324    1.0794 H   0  0  0  1  0  0  0  0  0  0  0  0
   -4.0646    3.0190    1.1236 H   0  0  0  1  0  0  0  0  0  0  0  0
   -5.3338    5.0556    0.7949 H   0  0  0  1  0  0  0  0  0  0  0  0
   -4.1852    7.1855    0.6187 H   0  0  0  1  0  0  0  0  0  0  0  0
   -0.7150    2.5917    0.5010 H   0  0  0  1  0  0  0  0  0  0  0  0
   -0.8503    2.7755    2.2337 H   0  0  0  1  0  0  0  0  0  0  0  0
  1  4  1  0  0  0  0
  2  4  1  0  0  0  0
  2  5  2  0  0  0  0
  2  6  1  0  0  0  0
  3  4  1  0  0  0  0
  3  7  1  0  0  0  0
  3  8  1  0  0  0  0
  4 26  1  0  0  0  0
  6  9  1  0  0  0  0
  6 12  1  0  0  0  0
  8 10  1  0  0  0  0
  8 11  2  0  0  0  0
  9 13  1  0  0  0  0
  9 14  1  0  0  0  0
  9 15  1  0  0  0  0
 10 16  1  0  0  0  0
 10 17  1  0  0  0  0
 10 18  1  0  0  0  0
 19 20  1  0  0  0  0
 20 21  4  0  0  0  0
 20 25  4  0  0  0  0
 21 22  4  0  0  0  0
 21 27  1  0  0  0  0
 22 23  4  0  0  0  0
 22 26  1  0  0  0  0
 23 24  4  0  0  0  0
 23 28  1  0  0  0  0
 24 25  4  0  0  0  0
 24 29  1  0  0  0  0
 25 30  1  0  0  0  0
 26 31  1  0  0  0  0
 26 32  1  0  0  0  0
M  END
> <BCLConfClusterSize>
1

> <ConfClashScore>
0 

> <ConfOneFourInteractionScore>
-0.952877 

> <ConfScore>
0.158096 

> <ConfScorePBest>
0.00310603 

> <ConfTolerance>
1.02142 

> <RosettaParamsInstructions>
M  ROOT 3
M  POLY_N_BB 3
M  POLY_CA_BB 4
M  POLY_C_BB 2
M  POLY_O_BB 5
M  POLY_IGNORE 9 10 11 12 13 14 15 16 17 18 
M  POLY_UPPER 6
M  POLY_LOWER 8
M  POLY_CHG 0
M  POLY_PROPERTIES ALPHA_AA L_AA PROTEIN AROMATIC POLYMER 
M  END

$$$$



 32 32  0  0  0  0  0  0  0  0999 V2000
    0.3566    3.1026    0.2632 H   0  0  0  1  0  0  0  0  0  0  0  0
    0.1592    0.9960    0.3637 C   0  0  0  1  0  0  0  0  0  0  0  0
   -1.0715    2.5091   -1.1098 N   0  0  0  1  0  0  0  0  0  0  0  0
   -0.4384    2.3897    0.1951 C   0  0  0  1  0  0  0  0  0  0  0  0
    0.0897    0.3349    1.3868 O   0  0  0  1  0  0  0  0  0  0  0  0
    0.7817    0.5463   -0.7296 N   0  0  0  1  0  0  0  0  0  0  0  0
   -0.8601    3.2857   -1.6688 H   0  0  0  1  0  0  0  0  0  0  0  0
   -1.9395    1.5877   -1.5767 C   0  0  0  1  0  0  0  0  0  0  0  0
    1.4372   -0.7523   -0.7723 C   0  0  0  1  0  0  0  0  0  0  0  0
   -2.4163    1.7201   -3.0053 C   0  0  0  1  0  0  0  0  0  0  0  0
   -2.3322    0.6676   -0.8642 O   0  0  0  1  0  0  0  0  0  0  0  0
    0.7973    1.1106   -1.5307 H   0  0  0  1  0  0  0  0  0  0  0  0
    1.2396   -1.2821    0.1361 H   0  0  0  1  0  0  0  0  0  0  0  0
    2.4926   -0.6153   -0.8826 H   0  0  0  1  0  0  0  0  0  0  0  0
    1.0613   -1.3142   -1.6017 H   0  0  0  1  0  0  0  0  0  0  0  0
   -1.5812    1.6397   -3.6695 H   0  0  0  1  0  0  0  0  0  0  0  0
   -2.8864    2.6721   -3.1374 H   0  0  0  1  0  0  0  0  0  0  0  0
   -3.1187    0.9420   -3.2202 H   0  0  0  1  0  0  0  0  0  0  0  0
   -1.6268    7.5487    0.7250 F   0  0  0  1  0  0  0  0  0  0  0  0
   -2.2607    6.3650    0.8308 C   0  0  0  1  0  0  0  0  0  0  0  0
   -1.5303    5.2017    1.0166 C   0  0  0  1  0  0  0  0  0  0  0  0
   -2.1803    3.9864    1.1198 C   0  0  0  1  0  0  0  0  0  0  0  0
   -3.5633    3.9316    1.0429 C   0  0  0  1  0  0  0  0  0  0  0  0
   -4.2918    5.0914    0.8576 C   0  0  0  1  0  0  0  0  0  0  0  0
   -3.6396    6.3102    0.7541 C   0  0  0  1  0  0  0  0  0  0  0  0
   -1.4379    2.6859    1.3169 C   0  0  0  1  0  0  0  0  0  0  0  0
   -0.4929    5.2433    1.0783 H   0  0  0  1  0  0  0  0  0  0  0  0
   -4.0527    3.0176    1.1246 H   0  0  0  1  0  0  0  0  0  0  0  0
   -5.3291    5.0497    0.7959 H   0  0  0  1  0  0  0  0  0  0  0  0
   -4.1880    7.1835    0.6187 H   0  0  0  1  0  0  0  0  0  0  0  0
   -0.9051    2.7349    2.2436 H   0  0  0  1  0  0  0  0  0  0  0  0
   -2.1511    1.8892    1.3567 H   0  0  0  1  0  0  0  0  0  0  0  0
  1  4  1  0  0  0  0
  2  4  1  0  0  0  0
  2  5  2  0  0  0  0
  2  6  1  0  0  0  0
  3  4  1  0  0  0  0
  3  7  1  0  0  0  0
  3  8  1  0  0  0  0
  4 26  1  0  0  0  0
  6  9  1  0  0  0  0
  6 12  1  0  0  0  0
  8 10  1  0  0  0  0
  8 11  2  0  0  0  0
  9 13  1  0  0  0  0
  9 14  1  0  0  0  0
  9 15  1  0  0  0  0
 10 16  1  0  0  0  0
 10 17  1  0  0  0  0
 10 18  1  0  0  0  0
 19 20  1  0  0  0  0
 20 21  4  0  0  0  0
 20 25  4  0  0  0  0
 21 22  4  0  0  0  0
 21 27  1  0  0  0  0
 22 23  4  0  0  0  0
 22 26  1  0  0  0  0
 23 24  4  0  0  0  0
 23 28  1  0  0  0  0
 24 25  4  0  0  0  0
 24 29  1  0  0  0  0
 25 30  1  0  0  0  0
 26 31  1  0  0  0  0
 26 32  1  0  0  0  0
M  END
> <BCLConfClusterSize>
1

> <ConfClashScore>
0 

> <ConfOneFourInteractionScore>
-0.938696 

> <ConfScore>
0.170993 

> <ConfScorePBest>
0.00307755 

> <ConfTolerance>
0.505104 

> <RosettaParamsInstructions>
M  ROOT 3
M  POLY_N_BB 3
M  POLY_CA_BB 4
M  POLY_C_BB 2
M  POLY_O_BB 5
M  POLY_IGNORE 9 10 11 12 13 14 15 16 17 18 
M  POLY_UPPER 6
M  POLY_LOWER 8
M  POLY_CHG 0
M  POLY_PROPERTIES ALPHA_AA L_AA PROTEIN AROMATIC POLYMER 
M  END

$$$$



 32 32  0  0  0  0  0  0  0  0999 V2000
   -1.0657    1.2847    2.8713 H   0  0  0  1  0  0  0  0  0  0  0  0
   -0.4098    3.1740    3.5472 C   0  0  0  1  0  0  0  0  0  0  0  0
   -2.7183    2.4077    3.4028 N   0  0  0  1  0  0  0  0  0  0  0  0
   -1.3980    2.2993    2.8004 C   0  0  0  1  0  0  0  0  0  0  0  0
   -0.5232    4.3886    3.5601 O   0  0  0  1  0  0  0  0  0  0  0  0
    0.5800    2.5255    4.1810 N   0  0  0  1  0  0  0  0  0  0  0  0
   -2.9338    3.2056    3.9295 H   0  0  0  1  0  0  0  0  0  0  0  0
   -3.6469    1.4574    3.2628 C   0  0  0  1  0  0  0  0  0  0  0  0
    1.6161    3.2254    4.9257 C   0  0  0  1  0  0  0  0  0  0  0  0
   -4.9926    1.7529    3.8959 C   0  0  0  1  0  0  0  0  0  0  0  0
   -3.4416    0.4035    2.6620 O   0  0  0  1  0  0  0  0  0  0  0  0
    0.6058    1.5466    4.1409 H   0  0  0  1  0  0  0  0  0  0  0  0
    2.2257    3.7862    4.2483 H   0  0  0  1  0  0  0  0  0  0  0  0
    2.2230    2.5144    5.4462 H   0  0  0  1  0  0  0  0  0  0  0  0
    1.1614    3.8904    5.6299 H   0  0  0  1  0  0  0  0  0  0  0  0
   -5.3650    2.6849    3.5247 H   0  0  0  1  0  0  0  0  0  0  0  0
   -4.8815    1.8113    4.9585 H   0  0  0  1  0  0  0  0  0  0  0  0
   -5.6810    0.9712    3.6511 H   0  0  0  1  0  0  0  0  0  0  0  0
   -1.6578    7.5643    0.7212 F   0  0  0  1  0  0  0  0  0  0  0  0
   -2.2544    6.3619    0.8315 C   0  0  0  1  0  0  0  0  0  0  0  0
   -1.5268    5.1967    1.0174 C   0  0  0  1  0  0  0  0  0  0  0  0
   -2.1798    3.9830    1.1202 C   0  0  0  1  0  0  0  0  0  0  0  0
   -3.5628    3.9315    1.0429 C   0  0  0  1  0  0  0  0  0  0  0  0
   -4.2885    5.0931    0.8576 C   0  0  0  1  0  0  0  0  0  0  0  0
   -3.6334    6.3104    0.7545 C   0  0  0  1  0  0  0  0  0  0  0  0
   -1.4405    2.6806    1.3174 C   0  0  0  1  0  0  0  0  0  0  0  0
   -0.4894    5.2359    1.0794 H   0  0  0  1  0  0  0  0  0  0  0  0
   -4.0545    3.0187    1.1243 H   0  0  0  1  0  0  0  0  0  0  0  0
   -5.3259    5.0539    0.7956 H   0  0  0  1  0  0  0  0  0  0  0  0
   -4.1796    7.1850    0.6191 H   0  0  0  1  0  0  0  0  0  0  0  0
   -1.9393    1.9079    0.7706 H   0  0  0  1  0  0  0  0  0  0  0  0
   -0.4399    2.7867    0.9536 H   0  0  0  1  0  0  0  0  0  0  0  0
  1  4  1  0  0  0  0
  2  4  1  0  0  0  0
  2  5  2  0  0  0  0
  2  6  1  0  0  0  0
  3  4  1  0  0  0  0
  3  7  1  0  0  0  0
  3  8  1  0  0  0  0
  4 26  1  0  0  0  0
  6  9  1  0  0  0  0
  6 12  1  0  0  0  0
  8 10  1  0  0  0  0
  8 11  2  0  0  0  0
  9 13  1  0  0  0  0
  9 14  1  0  0  0  0
  9 15  1  0  0  0  0
 10 16  1  0  0  0  0
 10 17  1  0  0  0  0
 10 18  1  0  0  0  0
 19 20  1  0  0  0  0
 20 21  4  0  0  0  0
 20 25  4  0  0  0  0
 21 22  4  0  0  0  0
 21 27  1  0  0  0  0
 22 23  4  0  0  0  0
 22 26  1  0  0  0  0
 23 24  4  0  0  0  0
 23 28  1  0  0  0  0
 24 25  4  0  0  0  0
 24 29  1  0  0  0  0
 25 30  1  0  0  0  0
 26 31  1  0  0  0  0
 26 32  1  0  0  0  0
M  END
> <BCLConfClusterSize>
1

> <ConfClashScore>
0 

> <ConfOneFourInteractionScore>
-0.976742 

> <ConfScore>
0.171462 

> <ConfScorePBest>
0.00304907 

> <ConfTolerance>
0.692303 

> <RosettaParamsInstructions>
M  ROOT 3
M  POLY_N_BB 3
M  POLY_CA_BB 4
M  POLY_C_BB 2
M  POLY_O_BB 5
M  POLY_IGNORE 9 10 11 12 13 14 15 16 17 18 
M  POLY_UPPER 6
M  POLY_LOWER 8
M  POLY_CHG 0
M  POLY_PROPERTIES ALPHA_AA L_AA PROTEIN AROMATIC POLYMER 
M  END

$$$$



 32 32  0  0  0  0  0  0  0  0999 V2000
   -1.5189    0.6964    1.8824 H   0  0  0  1  0  0  0  0  0  0  0  0
   -2.9825    1.7853    2.9545 C   0  0  0  1  0  0  0  0  0  0  0  0
   -3.0355    1.1334    0.5497 N   0  0  0  1  0  0  0  0  0  0  0  0
   -2.1946    1.5007    1.6793 C   0  0  0  1  0  0  0  0  0  0  0  0
   -4.1646    2.1160    2.9129 O   0  0  0  1  0  0  0  0  0  0  0  0
   -2.3057    1.6508    4.0960 N   0  0  0  1  0  0  0  0  0  0  0  0
   -3.9909    1.3492    0.5814 H   0  0  0  1  0  0  0  0  0  0  0  0
   -2.5482    0.5094   -0.5335 C   0  0  0  1  0  0  0  0  0  0  0  0
   -2.8391    1.9365    5.4195 C   0  0  0  1  0  0  0  0  0  0  0  0
   -3.5343    0.2838   -1.6631 C   0  0  0  1  0  0  0  0  0  0  0  0
   -1.3810    0.1376   -0.6226 O   0  0  0  1  0  0  0  0  0  0  0  0
   -1.3794    1.3359    4.0392 H   0  0  0  1  0  0  0  0  0  0  0  0
   -3.7644    1.4157    5.5518 H   0  0  0  1  0  0  0  0  0  0  0  0
   -3.0054    2.9890    5.5172 H   0  0  0  1  0  0  0  0  0  0  0  0
   -2.1397    1.6150    6.1628 H   0  0  0  1  0  0  0  0  0  0  0  0
   -4.0579   -0.6353   -1.5018 H   0  0  0  1  0  0  0  0  0  0  0  0
   -3.0065    0.2350   -2.5926 H   0  0  0  1  0  0  0  0  0  0  0  0
   -4.2343    1.0925   -1.6919 H   0  0  0  1  0  0  0  0  0  0  0  0
   -1.6190    7.5350    0.7271 F   0  0  0  1  0  0  0  0  0  0  0  0
   -2.2609    6.3557    0.8319 C   0  0  0  1  0  0  0  0  0  0  0  0
   -1.5384    5.1873    1.0178 C   0  0  0  1  0  0  0  0  0  0  0  0
   -2.1967    3.9764    1.1200 C   0  0  0  1  0  0  0  0  0  0  0  0
   -3.5799    3.9309    1.0419 C   0  0  0  1  0  0  0  0  0  0  0  0
   -4.3005    5.0957    0.8565 C   0  0  0  1  0  0  0  0  0  0  0  0
   -3.6401    6.3101    0.7541 C   0  0  0  1  0  0  0  0  0  0  0  0
   -1.3608    2.7337    1.3160 C   0  0  0  1  0  0  0  0  0  0  0  0
   -0.5009    5.2220    1.0804 H   0  0  0  1  0  0  0  0  0  0  0  0
   -4.0756    3.0202    1.1228 H   0  0  0  1  0  0  0  0  0  0  0  0
   -5.3380    5.0610    0.7940 H   0  0  0  1  0  0  0  0  0  0  0  0
   -4.1824    7.1871    0.6186 H   0  0  0  1  0  0  0  0  0  0  0  0
   -0.8324    2.5319    0.4077 H   0  0  0  1  0  0  0  0  0  0  0  0
   -0.6602    2.9153    2.1040 H   0  0  0  1  0  0  0  0  0  0  0  0
  1  4  1  0  0  0  0
  2  4  1  0  0  0  0
  2  5  2  0  0  0  0
  2  6  1  0  0  0  0
  3  4  1  0  0  0  0
  3  7  1  0  0  0  0
  3  8  1  0  0  0  0
  4 26  1  0  0  0  0
  6  9  1  0  0  0  0
  6 12  1  0  0  0  0
  8 10  1  0  0  0  0
  8 11  2  0  0  0  0
  9 13  1  0  0  0  0
  9 14  1  0  0  0  0
  9 15  1  0  0  0  0
 10 16  1  0  0  0  0
 10 17  1  0  0  0  0
 10 18  1  0  0  0  0
 19 20  1  0  0  0  0
 20 21  4  0  0  0  0
 20 25  4  0  0  0  0
 21 22  4  0  0  0  0
 21 27  1  0  0  0  0
 22 23  4  0  0  0  0
 22 26  1  0  0  0  0
 23 24  4  0  0  0  0
 23 28  1  0  0  0  0
 24 25  4  0  0  0  0
 24 29  1  0  0  0  0
 25 30  1  0  0  0  0
 26 31  1  0  0  0  0
 26 32  1  0  0  0  0
M  END
> <BCLConfClusterSize>
1

> <ConfClashScore>
0 

> <ConfOneFourInteractionScore>
-0.979817 

> <ConfScore>
0.180035 

> <ConfScorePBest>
0.00302059 

> <ConfTolerance>
0.898078 

> <RosettaParamsInstructions>
M  ROOT 3
M  POLY_N_BB 3
M  POLY_CA_BB 4
M  POLY_C_BB 2
M  POLY_O_BB 5
M  POLY_IGNORE 9 10 11 12 13 14 15 16 17 18 
M  POLY_UPPER 6
M  POLY_LOWER 8
M  POLY_CHG 0
M  POLY_PROPERTIES ALPHA_AA L_AA PROTEIN AROMATIC POLYMER 
M  END

$$$$



 32 32  0  0  0  0  0  0  0  0999 V2000
   -0.5243    2.6908    3.2517 H   0  0  0  1  0  0  0  0  0  0  0  0
   -2.6271    2.7000    3.5066 C   0  0  0  1  0  0  0  0  0  0  0  0
   -1.2447    0.7959    2.8474 N   0  0  0  1  0  0  0  0  0  0  0  0
   -1.3698    2.2427    2.7730 C   0  0  0  1  0  0  0  0  0  0  0  0
   -2.7303    3.7693    4.0774 O   0  0  0  1  0  0  0  0  0  0  0  0
   -3.6528    1.8439    3.4970 N   0  0  0  1  0  0  0  0  0  0  0  0
   -1.0924    0.2912    2.0213 H   0  0  0  1  0  0  0  0  0  0  0  0
   -1.3307    0.1278    4.0078 C   0  0  0  1  0  0  0  0  0  0  0  0
   -5.0011    2.2420    3.8732 C   0  0  0  1  0  0  0  0  0  0  0  0
   -1.2680   -1.3793    3.9043 C   0  0  0  1  0  0  0  0  0  0  0  0
   -1.4529    0.6875    5.0942 O   0  0  0  1  0  0  0  0  0  0  0  0
   -3.4916    0.9157    3.2273 H   0  0  0  1  0  0  0  0  0  0  0  0
   -5.1942    3.2317    3.5154 H   0  0  0  1  0  0  0  0  0  0  0  0
   -5.0937    2.2239    4.9391 H   0  0  0  1  0  0  0  0  0  0  0  0
   -5.7066    1.5630    3.4418 H   0  0  0  1  0  0  0  0  0  0  0  0
   -1.0335   -1.7937    4.8625 H   0  0  0  1  0  0  0  0  0  0  0  0
   -0.5110   -1.6570    3.2009 H   0  0  0  1  0  0  0  0  0  0  0  0
   -2.2151   -1.7537    3.5761 H   0  0  0  1  0  0  0  0  0  0  0  0
   -1.5924    7.5248    0.7300 F   0  0  0  1  0  0  0  0  0  0  0  0
   -2.2671    6.3635    0.8306 C   0  0  0  1  0  0  0  0  0  0  0  0
   -1.5379    5.1994    1.0164 C   0  0  0  1  0  0  0  0  0  0  0  0
   -2.1893    3.9848    1.1194 C   0  0  0  1  0  0  0  0  0  0  0  0
   -3.5723    3.9314    1.0423 C   0  0  0  1  0  0  0  0  0  0  0  0
   -4.2996    5.0921    0.8570 C   0  0  0  1  0  0  0  0  0  0  0  0
   -3.6461    6.3102    0.7537 C   0  0  0  1  0  0  0  0  0  0  0  0
   -1.3949    2.7152    1.3161 C   0  0  0  1  0  0  0  0  0  0  0  0
   -0.5006    5.2399    1.0783 H   0  0  0  1  0  0  0  0  0  0  0  0
   -4.0627    3.0180    1.1239 H   0  0  0  1  0  0  0  0  0  0  0  0
   -5.3369    5.0515    0.7952 H   0  0  0  1  0  0  0  0  0  0  0  0
   -4.1935    7.1841    0.6183 H   0  0  0  1  0  0  0  0  0  0  0  0
   -1.8307    1.9443    0.7155 H   0  0  0  1  0  0  0  0  0  0  0  0
   -0.3886    2.8904    0.9975 H   0  0  0  1  0  0  0  0  0  0  0  0
  1  4  1  0  0  0  0
  2  4  1  0  0  0  0
  2  5  2  0  0  0  0
  2  6  1  0  0  0  0
  3  4  1  0  0  0  0
  3  7  1  0  0  0  0
  3  8  1  0  0  0  0
  4 26  1  0  0  0  0
  6  9  1  0  0  0  0
  6 12  1  0  0  0  0
  8 10  1  0  0  0  0
  8 11  2  0  0  0  0
  9 13  1  0  0  0  0
  9 14  1  0  0  0  0
  9 15  1  0  0  0  0
 10 16  1  0  0  0  0
 10 17  1  0  0  0  0
 10 18  1  0  0  0  0
 19 20  1  0  0  0  0
 20 21  4  0  0  0  0
 20 25  4  0  0  0  0
 21 22  4  0  0  0  0
 21 27  1  0  0  0  0
 22 23  4  0  0  0  0
 22 26  1  0  0  0  0
 23 24  4  0  0  0  0
 23 28  1  0  0  0  0
 24 25  4  0  0  0  0
 24 29  1  0  0  0  0
 25 30  1  0  0  0  0
 26 31  1  0  0  0  0
 26 32  1  0  0  0  0
M  END
> <BCLConfClusterSize>
1

> <ConfClashScore>
0 

> <ConfOneFourInteractionScore>
-0.942345 

> <ConfScore>
0.181601 

> <ConfScorePBest>
0.00299211 

> <ConfTolerance>
0.95699 

> <RosettaParamsInstructions>
M  ROOT 3
M  POLY_N_BB 3
M  POLY_CA_BB 4
M  POLY_C_BB 2
M  POLY_O_BB 5
M  POLY_IGNORE 9 10 11 12 13 14 15 16 17 18 
M  POLY_UPPER 6
M  POLY_LOWER 8
M  POLY_CHG 0
M  POLY_PROPERTIES ALPHA_AA L_AA PROTEIN AROMATIC POLYMER 
M  END

$$$$



 32 32  0  0  0  0  0  0  0  0999 V2000
   -0.7149    1.4817    2.8715 H   0  0  0  1  0  0  0  0  0  0  0  0
   -0.1266    3.4303    3.3698 C   0  0  0  1  0  0  0  0  0  0  0  0
   -2.3724    2.4596    3.5772 N   0  0  0  1  0  0  0  0  0  0  0  0
   -1.1443    2.4589    2.7964 C   0  0  0  1  0  0  0  0  0  0  0  0
    0.9055    3.7041    2.7629 O   0  0  0  1  0  0  0  0  0  0  0  0
   -0.4332    3.9577    4.5669 N   0  0  0  1  0  0  0  0  0  0  0  0
   -2.6643    3.2790    4.0286 H   0  0  0  1  0  0  0  0  0  0  0  0
   -3.1015    1.3473    3.6797 C   0  0  0  1  0  0  0  0  0  0  0  0
    0.3770    5.0365    5.1211 C   0  0  0  1  0  0  0  0  0  0  0  0
   -4.3336    1.4101    4.5913 C   0  0  0  1  0  0  0  0  0  0  0  0
   -2.8745    0.3380    3.0331 O   0  0  0  1  0  0  0  0  0  0  0  0
   -1.2028    3.6168    5.0688 H   0  0  0  1  0  0  0  0  0  0  0  0
    0.1722    5.1362    6.1665 H   0  0  0  1  0  0  0  0  0  0  0  0
    0.1395    5.9529    4.6224 H   0  0  0  1  0  0  0  0  0  0  0  0
    1.4137    4.8118    4.9808 H   0  0  0  1  0  0  0  0  0  0  0  0
   -4.0240    1.6007    5.5976 H   0  0  0  1  0  0  0  0  0  0  0  0
   -4.8556    0.4770    4.5497 H   0  0  0  1  0  0  0  0  0  0  0  0
   -4.9806    2.1963    4.2624 H   0  0  0  1  0  0  0  0  0  0  0  0
   -1.5924    7.5248    0.7300 F   0  0  0  1  0  0  0  0  0  0  0  0
   -2.2671    6.3635    0.8306 C   0  0  0  1  0  0  0  0  0  0  0  0
   -1.5379    5.1994    1.0164 C   0  0  0  1  0  0  0  0  0  0  0  0
   -2.1893    3.9848    1.1194 C   0  0  0  1  0  0  0  0  0  0  0  0
   -3.5723    3.9314    1.0423 C   0  0  0  1  0  0  0  0  0  0  0  0
   -4.2996    5.0921    0.8570 C   0  0  0  1  0  0  0  0  0  0  0  0
   -3.6461    6.3102    0.7537 C   0  0  0  1  0  0  0  0  0  0  0  0
   -1.3949    2.7152    1.3161 C   0  0  0  1  0  0  0  0  0  0  0  0
   -0.5006    5.2399    1.0783 H   0  0  0  1  0  0  0  0  0  0  0  0
   -4.0627    3.0180    1.1239 H   0  0  0  1  0  0  0  0  0  0  0  0
   -5.3369    5.0515    0.7952 H   0  0  0  1  0  0  0  0  0  0  0  0
   -4.1935    7.1841    0.6183 H   0  0  0  1  0  0  0  0  0  0  0  0
   -1.9414    1.8922    0.9051 H   0  0  0  1  0  0  0  0  0  0  0  0
   -0.4556    2.8076    0.8121 H   0  0  0  1  0  0  0  0  0  0  0  0
  1  4  1  0  0  0  0
  2  4  1  0  0  0  0
  2  5  2  0  0  0  0
  2  6  1  0  0  0  0
  3  4  1  0  0  0  0
  3  7  1  0  0  0  0
  3  8  1  0  0  0  0
  4 26  1  0  0  0  0
  6  9  1  0  0  0  0
  6 12  1  0  0  0  0
  8 10  1  0  0  0  0
  8 11  2  0  0  0  0
  9 13  1  0  0  0  0
  9 14  1  0  0  0  0
  9 15  1  0  0  0  0
 10 16  1  0  0  0  0
 10 17  1  0  0  0  0
 10 18  1  0  0  0  0
 19 20  1  0  0  0  0
 20 21  4  0  0  0  0
 20 25  4  0  0  0  0
 21 22  4  0  0  0  0
 21 27  1  0  0  0  0
 22 23  4  0  0  0  0
 22 26  1  0  0  0  0
 23 24  4  0  0  0  0
 23 28  1  0  0  0  0
 24 25  4  0  0  0  0
 24 29  1  0  0  0  0
 25 30  1  0  0  0  0
 26 31  1  0  0  0  0
 26 32  1  0  0  0  0
M  END
> <BCLConfClusterSize>
1

> <ConfClashScore>
0 

> <ConfOneFourInteractionScore>
-0.932585 

> <ConfScore>
0.193559 

> <ConfScorePBest>
0.00296363 

> <ConfTolerance>
0.457778 

> <RosettaParamsInstructions>
M  ROOT 3
M  POLY_N_BB 3
M  POLY_CA_BB 4
M  POLY_C_BB 2
M  POLY_O_BB 5
M  POLY_IGNORE 9 10 11 12 13 14 15 16 17 18 
M  POLY_UPPER 6
M  POLY_LOWER 8
M  POLY_CHG 0
M  POLY_PROPERTIES ALPHA_AA L_AA PROTEIN AROMATIC POLYMER 
M  END

$$$$



 32 32  0  0  0  0  0  0  0  0999 V2000
   -1.9791    2.0964    3.2442 H   0  0  0  1  0  0  0  0  0  0  0  0
   -0.0372    1.3164    2.9148 C   0  0  0  1  0  0  0  0  0  0  0  0
   -0.6059    3.6275    3.4841 N   0  0  0  1  0  0  0  0  0  0  0  0
   -1.0705    2.4320    2.7895 C   0  0  0  1  0  0  0  0  0  0  0  0
    1.1661    1.5646    2.9743 O   0  0  0  1  0  0  0  0  0  0  0  0
   -0.5265    0.0738    2.9543 N   0  0  0  1  0  0  0  0  0  0  0  0
   -1.1682    3.9798    4.2052 H   0  0  0  1  0  0  0  0  0  0  0  0
    0.5396    4.2847    3.2085 C   0  0  0  1  0  0  0  0  0  0  0  0
    0.3336   -1.0993    2.9997 C   0  0  0  1  0  0  0  0  0  0  0  0
    0.8496    5.5400    4.0007 C   0  0  0  1  0  0  0  0  0  0  0  0
    1.3118    3.8797    2.3405 O   0  0  0  1  0  0  0  0  0  0  0  0
   -1.4983   -0.0521    2.9527 H   0  0  0  1  0  0  0  0  0  0  0  0
    1.2097   -0.8779    3.5728 H   0  0  0  1  0  0  0  0  0  0  0  0
    0.6180   -1.3714    2.0047 H   0  0  0  1  0  0  0  0  0  0  0  0
   -0.1944   -1.9110    3.4549 H   0  0  0  1  0  0  0  0  0  0  0  0
    0.1769    5.6145    4.8295 H   0  0  0  1  0  0  0  0  0  0  0  0
    0.7346    6.3968    3.3702 H   0  0  0  1  0  0  0  0  0  0  0  0
    1.8559    5.4944    4.3614 H   0  0  0  1  0  0  0  0  0  0  0  0
   -1.6190    7.5350    0.7271 F   0  0  0  1  0  0  0  0  0  0  0  0
   -2.2609    6.3557    0.8319 C   0  0  0  1  0  0  0  0  0  0  0  0
   -1.5384    5.1873    1.0178 C   0  0  0  1  0  0  0  0  0  0  0  0
   -2.1967    3.9764    1.1200 C   0  0  0  1  0  0  0  0  0  0  0  0
   -3.5799    3.9309    1.0419 C   0  0  0  1  0  0  0  0  0  0  0  0
   -4.3005    5.0957    0.8565 C   0  0  0  1  0  0  0  0  0  0  0  0
   -3.6401    6.3101    0.7541 C   0  0  0  1  0  0  0  0  0  0  0  0
   -1.3608    2.7337    1.3160 C   0  0  0  1  0  0  0  0  0  0  0  0
   -0.5009    5.2220    1.0804 H   0  0  0  1  0  0  0  0  0  0  0  0
   -4.0756    3.0202    1.1228 H   0  0  0  1  0  0  0  0  0  0  0  0
   -5.3380    5.0610    0.7940 H   0  0  0  1  0  0  0  0  0  0  0  0
   -4.1824    7.1871    0.6186 H   0  0  0  1  0  0  0  0  0  0  0  0
   -1.8845    1.9011    0.8946 H   0  0  0  1  0  0  0  0  0  0  0  0
   -0.4298    2.8655    0.8055 H   0  0  0  1  0  0  0  0  0  0  0  0
  1  4  1  0  0  0  0
  2  4  1  0  0  0  0
  2  5  2  0  0  0  0
  2  6  1  0  0  0  0
  3  4  1  0  0  0  0
  3  7  1  0  0  0  0
  3  8  1  0  0  0  0
  4 26  1  0  0  0  0
  6  9  1  0  0  0  0
  6 12  1  0  0  0  0
  8 10  1  0  0  0  0
  8 11  2  0  0  0  0
  9 13  1  0  0  0  0
  9 14  1  0  0  0  0
  9 15  1  0  0  0  0
 10 16  1  0  0  0  0
 10 17  1  0  0  0  0
 10 18  1  0  0  0  0
 19 20  1  0  0  0  0
 20 21  4  0  0  0  0
 20 25  4  0  0  0  0
 21 22  4  0  0  0  0
 21 27  1  0  0  0  0
 22 23  4  0  0  0  0
 22 26  1  0  0  0  0
 23 24  4  0  0  0  0
 23 28  1  0  0  0  0
 24 25  4  0  0  0  0
 24 29  1  0  0  0  0
 25 30  1  0  0  0  0
 26 31  1  0  0  0  0
 26 32  1  0  0  0  0
M  END
> <BCLConfClusterSize>
1

> <ConfClashScore>
0 

> <ConfOneFourInteractionScore>
-0.98648 

> <ConfScore>
0.200202 

> <ConfScorePBest>
0.00293515 

> <ConfTolerance>
0.48896 

> <RosettaParamsInstructions>
M  ROOT 3
M  POLY_N_BB 3
M  POLY_CA_BB 4
M  POLY_C_BB 2
M  POLY_O_BB 5
M  POLY_IGNORE 9 10 11 12 13 14 15 16 17 18 
M  POLY_UPPER 6
M  POLY_LOWER 8
M  POLY_CHG 0
M  POLY_PROPERTIES ALPHA_AA L_AA PROTEIN AROMATIC POLYMER 
M  END

$$$$



 32 32  0  0  0  0  0  0  0  0999 V2000
   -0.6257    1.0648    0.1399 H   0  0  0  1  0  0  0  0  0  0  0  0
   -2.4032    1.7649   -0.8127 C   0  0  0  1  0  0  0  0  0  0  0  0
   -0.2049    2.8579   -0.8315 N   0  0  0  1  0  0  0  0  0  0  0  0
   -1.0951    2.0053   -0.0601 C   0  0  0  1  0  0  0  0  0  0  0  0
   -3.3398    1.1736   -0.2771 O   0  0  0  1  0  0  0  0  0  0  0  0
   -2.4981    2.2145   -2.0643 N   0  0  0  1  0  0  0  0  0  0  0  0
   -0.6069    3.4753   -1.4778 H   0  0  0  1  0  0  0  0  0  0  0  0
    1.1373    2.8532   -0.7144 C   0  0  0  1  0  0  0  0  0  0  0  0
   -3.7032    2.1265   -2.8753 C   0  0  0  1  0  0  0  0  0  0  0  0
    1.8348    3.8565   -1.6239 C   0  0  0  1  0  0  0  0  0  0  0  0
    1.7642    2.1297    0.0363 O   0  0  0  1  0  0  0  0  0  0  0  0
   -1.7058    2.6307   -2.4636 H   0  0  0  1  0  0  0  0  0  0  0  0
   -4.5469    1.9446   -2.2429 H   0  0  0  1  0  0  0  0  0  0  0  0
   -3.6035    1.3240   -3.5760 H   0  0  0  1  0  0  0  0  0  0  0  0
   -3.8454    3.0462   -3.4034 H   0  0  0  1  0  0  0  0  0  0  0  0
    2.8950    3.7473   -1.5296 H   0  0  0  1  0  0  0  0  0  0  0  0
    1.5523    4.8494   -1.3422 H   0  0  0  1  0  0  0  0  0  0  0  0
    1.5469    3.6777   -2.6388 H   0  0  0  1  0  0  0  0  0  0  0  0
   -1.5925    7.5251    0.7243 F   0  0  0  1  0  0  0  0  0  0  0  0
   -2.2670    6.3642    0.8313 C   0  0  0  1  0  0  0  0  0  0  0  0
   -1.5381    5.2023    1.0317 C   0  0  0  1  0  0  0  0  0  0  0  0
   -2.1892    3.9882    1.1418 C   0  0  0  1  0  0  0  0  0  0  0  0
   -3.5717    3.9331    1.0571 C   0  0  0  1  0  0  0  0  0  0  0  0
   -4.2987    5.0915    0.8572 C   0  0  0  1  0  0  0  0  0  0  0  0
   -3.6455    6.3092    0.7468 C   0  0  0  1  0  0  0  0  0  0  0  0
   -1.3990    2.7061    1.2576 C   0  0  0  1  0  0  0  0  0  0  0  0
   -0.5012    5.2442    1.0993 H   0  0  0  1  0  0  0  0  0  0  0  0
   -4.0620    3.0201    1.1439 H   0  0  0  1  0  0  0  0  0  0  0  0
   -5.3357    5.0496    0.7896 H   0  0  0  1  0  0  0  0  0  0  0  0
   -4.1927    7.1814    0.6004 H   0  0  0  1  0  0  0  0  0  0  0  0
   -0.4678    2.9341    1.7326 H   0  0  0  1  0  0  0  0  0  0  0  0
   -1.9564    2.0291    1.8706 H   0  0  0  1  0  0  0  0  0  0  0  0
  1  4  1  0  0  0  0
  2  4  1  0  0  0  0
  2  5  2  0  0  0  0
  2  6  1  0  0  0  0
  3  4  1  0  0  0  0
  3  7  1  0  0  0  0
  3  8  1  0  0  0  0
  4 26  1  0  0  0  0
  6  9  1  0  0  0  0
  6 12  1  0  0  0  0
  8 10  1  0  0  0  0
  8 11  2  0  0  0  0
  9 13  1  0  0  0  0
  9 14  1  0  0  0  0
  9 15  1  0  0  0  0
 10 16  1  0  0  0  0
 10 17  1  0  0  0  0
 10 18  1  0  0  0  0
 19 20  1  0  0  0  0
 20 21  4  0  0  0  0
 20 25  4  0  0  0  0
 21 22  4  0  0  0  0
 21 27  1  0  0  0  0
 22 23  4  0  0  0  0
 22 26  1  0  0  0  0
 23 24  4  0  0  0  0
 23 28  1  0  0  0  0
 24 25  4  0  0  0  0
 24 29  1  0  0  0  0
 25 30  1  0  0  0  0
 26 31  1  0  0  0  0
 26 32  1  0  0  0  0
M  END
> <BCLConfClusterSize>
1

> <ConfClashScore>
0 

> <ConfOneFourInteractionScore>
-0.957723 

> <ConfScore>
0.201241 

> <ConfScorePBest>
0.00290666 

> <ConfTolerance>
0.483822 

> <RosettaParamsInstructions>
M  ROOT 3
M  POLY_N_BB 3
M  POLY_CA_BB 4
M  POLY_C_BB 2
M  POLY_O_BB 5
M  POLY_IGNORE 9 10 11 12 13 14 15 16 17 18 
M  POLY_UPPER 6
M  POLY_LOWER 8
M  POLY_CHG 0
M  POLY_PROPERTIES ALPHA_AA L_AA PROTEIN AROMATIC POLYMER 
M  END

$$$$



 32 32  0  0  0  0  0  0  0  0999 V2000
   -1.2353    2.6515    3.4191 H   0  0  0  1  0  0  0  0  0  0  0  0
   -3.1018    1.8185    2.8825 C   0  0  0  1  0  0  0  0  0  0  0  0
   -0.8575    0.7656    2.6684 N   0  0  0  1  0  0  0  0  0  0  0  0
   -1.6097    2.0099    2.6490 C   0  0  0  1  0  0  0  0  0  0  0  0
   -3.6970    0.8544    2.4031 O   0  0  0  1  0  0  0  0  0  0  0  0
   -3.7435    2.7275    3.6222 N   0  0  0  1  0  0  0  0  0  0  0  0
   -1.0261    0.1001    1.9691 H   0  0  0  1  0  0  0  0  0  0  0  0
    0.0632    0.4959    3.6144 C   0  0  0  1  0  0  0  0  0  0  0  0
   -5.1634    2.6226    3.9236 C   0  0  0  1  0  0  0  0  0  0  0  0
    0.7844   -0.8296    3.4065 C   0  0  0  1  0  0  0  0  0  0  0  0
    0.3193    1.2206    4.5587 O   0  0  0  1  0  0  0  0  0  0  0  0
   -3.2405    3.4914    3.9740 H   0  0  0  1  0  0  0  0  0  0  0  0
   -5.4790    1.6068    3.8076 H   0  0  0  1  0  0  0  0  0  0  0  0
   -5.7170    3.2465    3.2535 H   0  0  0  1  0  0  0  0  0  0  0  0
   -5.3380    2.9373    4.9312 H   0  0  0  1  0  0  0  0  0  0  0  0
    1.2561   -1.1267    4.3198 H   0  0  0  1  0  0  0  0  0  0  0  0
    1.5256   -0.7162    2.6431 H   0  0  0  1  0  0  0  0  0  0  0  0
    0.0783   -1.5770    3.1105 H   0  0  0  1  0  0  0  0  0  0  0  0
   -1.6228    7.5417    0.7261 F   0  0  0  1  0  0  0  0  0  0  0  0
   -2.2608    6.3603    0.8314 C   0  0  0  1  0  0  0  0  0  0  0  0
   -1.5345    5.1943    1.0172 C   0  0  0  1  0  0  0  0  0  0  0  0
   -2.1888    3.9813    1.1199 C   0  0  0  1  0  0  0  0  0  0  0  0
   -3.5719    3.9313    1.0424 C   0  0  0  1  0  0  0  0  0  0  0  0
   -4.2963    5.0937    0.8570 C   0  0  0  1  0  0  0  0  0  0  0  0
   -3.6399    6.3103    0.7541 C   0  0  0  1  0  0  0  0  0  0  0  0
   -1.3975    2.7098    1.3166 C   0  0  0  1  0  0  0  0  0  0  0  0
   -0.4971    5.2324    1.0794 H   0  0  0  1  0  0  0  0  0  0  0  0
   -4.0646    3.0190    1.1236 H   0  0  0  1  0  0  0  0  0  0  0  0
   -5.3338    5.0556    0.7949 H   0  0  0  1  0  0  0  0  0  0  0  0
   -4.1852    7.1855    0.6187 H   0  0  0  1  0  0  0  0  0  0  0  0
   -1.6700    2.0278    0.5384 H   0  0  0  1  0  0  0  0  0  0  0  0
   -0.3586    2.9513    1.2323 H   0  0  0  1  0  0  0  0  0  0  0  0
  1  4  1  0  0  0  0
  2  4  1  0  0  0  0
  2  5  2  0  0  0  0
  2  6  1  0  0  0  0
  3  4  1  0  0  0  0
  3  7  1  0  0  0  0
  3  8  1  0  0  0  0
  4 26  1  0  0  0  0
  6  9  1  0  0  0  0
  6 12  1  0  0  0  0
  8 10  1  0  0  0  0
  8 11  2  0  0  0  0
  9 13  1  0  0  0  0
  9 14  1  0  0  0  0
  9 15  1  0  0  0  0
 10 16  1  0  0  0  0
 10 17  1  0  0  0  0
 10 18  1  0  0  0  0
 19 20  1  0  0  0  0
 20 21  4  0  0  0  0
 20 25  4  0  0  0  0
 21 22  4  0  0  0  0
 21 27  1  0  0  0  0
 22 23  4  0  0  0  0
 22 26  1  0  0  0  0
 23 24  4  0  0  0  0
 23 28  1  0  0  0  0
 24 25  4  0  0  0  0
 24 29  1  0  0  0  0
 25 30  1  0  0  0  0
 26 31  1  0  0  0  0
 26 32  1  0  0  0  0
M  END
> <BCLConfClusterSize>
1

> <ConfClashScore>
0 

> <ConfOneFourInteractionScore>
-0.981931 

> <ConfScore>
0.211945 

> <ConfScorePBest>
0.00287818 

> <ConfTolerance>
0.858759 

> <RosettaParamsInstructions>
M  ROOT 3
M  POLY_N_BB 3
M  POLY_CA_BB 4
M  POLY_C_BB 2
M  POLY_O_BB 5
M  POLY_IGNORE 9 10 11 12 13 14 15 16 17 18 
M  POLY_UPPER 6
M  POLY_LOWER 8
M  POLY_CHG 0
M  POLY_PROPERTIES ALPHA_AA L_AA PROTEIN AROMATIC POLYMER 
M  END

$$$$



 32 32  0  0  0  0  0  0  0  0999 V2000
   -0.6326    1.3838    2.7619 H   0  0  0  1  0  0  0  0  0  0  0  0
   -0.8447    3.2179    3.7707 C   0  0  0  1  0  0  0  0  0  0  0  0
   -2.6456    1.6573    3.1539 N   0  0  0  1  0  0  0  0  0  0  0  0
   -1.3310    2.1943    2.7505 C   0  0  0  1  0  0  0  0  0  0  0  0
    0.3423    3.2996    4.0755 O   0  0  0  1  0  0  0  0  0  0  0  0
   -1.7871    4.0042    4.2985 N   0  0  0  1  0  0  0  0  0  0  0  0
   -3.2081    2.1870    3.7567 H   0  0  0  1  0  0  0  0  0  0  0  0
   -3.1053    0.4472    2.7161 C   0  0  0  1  0  0  0  0  0  0  0  0
   -1.4957    4.9705    5.3470 C   0  0  0  1  0  0  0  0  0  0  0  0
   -4.4429    0.0554    3.3132 C   0  0  0  1  0  0  0  0  0  0  0  0
   -2.4809   -0.2317    1.9220 O   0  0  0  1  0  0  0  0  0  0  0  0
   -2.7065    3.9277    3.9680 H   0  0  0  1  0  0  0  0  0  0  0  0
   -0.6484    5.5597    5.0643 H   0  0  0  1  0  0  0  0  0  0  0  0
   -1.2818    4.4532    6.2589 H   0  0  0  1  0  0  0  0  0  0  0  0
   -2.3426    5.6089    5.4886 H   0  0  0  1  0  0  0  0  0  0  0  0
   -4.3766    0.0738    4.3809 H   0  0  0  1  0  0  0  0  0  0  0  0
   -4.7027   -0.9307    2.9892 H   0  0  0  1  0  0  0  0  0  0  0  0
   -5.1934    0.7466    2.9907 H   0  0  0  1  0  0  0  0  0  0  0  0
   -1.6537    7.5575    0.7223 F   0  0  0  1  0  0  0  0  0  0  0  0
   -2.2545    6.3571    0.8321 C   0  0  0  1  0  0  0  0  0  0  0  0
   -1.5311    5.1894    1.0180 C   0  0  0  1  0  0  0  0  0  0  0  0
   -2.1883    3.9779    1.1203 C   0  0  0  1  0  0  0  0  0  0  0  0
   -3.5715    3.9312    1.0424 C   0  0  0  1  0  0  0  0  0  0  0  0
   -4.2931    5.0954    0.8571 C   0  0  0  1  0  0  0  0  0  0  0  0
   -3.6337    6.3104    0.7545 C   0  0  0  1  0  0  0  0  0  0  0  0
   -1.4001    2.7045    1.3170 C   0  0  0  1  0  0  0  0  0  0  0  0
   -0.4935    5.2249    1.0805 H   0  0  0  1  0  0  0  0  0  0  0  0
   -4.0664    3.0201    1.1234 H   0  0  0  1  0  0  0  0  0  0  0  0
   -5.3306    5.0598    0.7946 H   0  0  0  1  0  0  0  0  0  0  0  0
   -4.1768    7.1869    0.6190 H   0  0  0  1  0  0  0  0  0  0  0  0
   -1.8501    1.9417    0.7165 H   0  0  0  1  0  0  0  0  0  0  0  0
   -0.3997    2.8802    0.9806 H   0  0  0  1  0  0  0  0  0  0  0  0
  1  4  1  0  0  0  0
  2  4  1  0  0  0  0
  2  5  2  0  0  0  0
  2  6  1  0  0  0  0
  3  4  1  0  0  0  0
  3  7  1  0  0  0  0
  3  8  1  0  0  0  0
  4 26  1  0  0  0  0
  6  9  1  0  0  0  0
  6 12  1  0  0  0  0
  8 10  1  0  0  0  0
  8 11  2  0  0  0  0
  9 13  1  0  0  0  0
  9 14  1  0  0  0  0
  9 15  1  0  0  0  0
 10 16  1  0  0  0  0
 10 17  1  0  0  0  0
 10 18  1  0  0  0  0
 19 20  1  0  0  0  0
 20 21  4  0  0  0  0
 20 25  4  0  0  0  0
 21 22  4  0  0  0  0
 21 27  1  0  0  0  0
 22 23  4  0  0  0  0
 22 26  1  0  0  0  0
 23 24  4  0  0  0  0
 23 28  1  0  0  0  0
 24 25  4  0  0  0  0
 24 29  1  0  0  0  0
 25 30  1  0  0  0  0
 26 31  1  0  0  0  0
 26 32  1  0  0  0  0
M  END
> <BCLConfClusterSize>
1

> <ConfClashScore>
0 

> <ConfOneFourInteractionScore>
-0.96177 

> <ConfScore>
0.212226 

> <ConfScorePBest>
0.0028497 

> <ConfTolerance>
0.986031 

> <RosettaParamsInstructions>
M  ROOT 3
M  POLY_N_BB 3
M  POLY_CA_BB 4
M  POLY_C_BB 2
M  POLY_O_BB 5
M  POLY_IGNORE 9 10 11 12 13 14 15 16 17 18 
M  POLY_UPPER 6
M  POLY_LOWER 8
M  POLY_CHG 0
M  POLY_PROPERTIES ALPHA_AA L_AA PROTEIN AROMATIC POLYMER 
M  END

$$$$



 32 32  0  0  0  0  0  0  0  0999 V2000
   -2.9412    1.4509    0.6261 H   0  0  0  1  0  0  0  0  0  0  0  0
   -1.4937    0.1726    1.4686 C   0  0  0  1  0  0  0  0  0  0  0  0
   -3.0768    1.5443    2.6779 N   0  0  0  1  0  0  0  0  0  0  0  0
   -2.2781    1.4761    1.4655 C   0  0  0  1  0  0  0  0  0  0  0  0
   -0.4452    0.0632    0.8546 O   0  0  0  1  0  0  0  0  0  0  0  0
   -2.0302   -0.8292    2.1832 N   0  0  0  1  0  0  0  0  0  0  0  0
   -4.0330    1.3356    2.6267 H   0  0  0  1  0  0  0  0  0  0  0  0
   -2.5522    1.8822    3.8611 C   0  0  0  1  0  0  0  0  0  0  0  0
   -1.4875   -2.1793    2.1585 C   0  0  0  1  0  0  0  0  0  0  0  0
   -3.5216    1.8888    5.0379 C   0  0  0  1  0  0  0  0  0  0  0  0
   -1.3658    2.1721    4.0097 O   0  0  0  1  0  0  0  0  0  0  0  0
   -2.8147   -0.6450    2.7410 H   0  0  0  1  0  0  0  0  0  0  0  0
   -1.0155   -2.3572    1.2148 H   0  0  0  1  0  0  0  0  0  0  0  0
   -2.2797   -2.8846    2.2993 H   0  0  0  1  0  0  0  0  0  0  0  0
   -0.7682   -2.2887    2.9430 H   0  0  0  1  0  0  0  0  0  0  0  0
   -4.2045    2.7059    4.9335 H   0  0  0  1  0  0  0  0  0  0  0  0
   -2.9736    1.9967    5.9505 H   0  0  0  1  0  0  0  0  0  0  0  0
   -4.0671    0.9684    5.0555 H   0  0  0  1  0  0  0  0  0  0  0  0
   -1.6228    7.5417    0.7261 F   0  0  0  1  0  0  0  0  0  0  0  0
   -2.2608    6.3603    0.8314 C   0  0  0  1  0  0  0  0  0  0  0  0
   -1.5345    5.1943    1.0172 C   0  0  0  1  0  0  0  0  0  0  0  0
   -2.1888    3.9813    1.1199 C   0  0  0  1  0  0  0  0  0  0  0  0
   -3.5719    3.9313    1.0424 C   0  0  0  1  0  0  0  0  0  0  0  0
   -4.2963    5.0937    0.8570 C   0  0  0  1  0  0  0  0  0  0  0  0
   -3.6399    6.3103    0.7541 C   0  0  0  1  0  0  0  0  0  0  0  0
   -1.3975    2.7098    1.3166 C   0  0  0  1  0  0  0  0  0  0  0  0
   -0.4971    5.2324    1.0794 H   0  0  0  1  0  0  0  0  0  0  0  0
   -4.0646    3.0190    1.1236 H   0  0  0  1  0  0  0  0  0  0  0  0
   -5.3338    5.0556    0.7949 H   0  0  0  1  0  0  0  0  0  0  0  0
   -4.1852    7.1855    0.6187 H   0  0  0  1  0  0  0  0  0  0  0  0
   -0.7585    2.5719    0.4695 H   0  0  0  1  0  0  0  0  0  0  0  0
   -0.8025    2.8122    2.1999 H   0  0  0  1  0  0  0  0  0  0  0  0
  1  4  1  0  0  0  0
  2  4  1  0  0  0  0
  2  5  2  0  0  0  0
  2  6  1  0  0  0  0
  3  4  1  0  0  0  0
  3  7  1  0  0  0  0
  3  8  1  0  0  0  0
  4 26  1  0  0  0  0
  6  9  1  0  0  0  0
  6 12  1  0  0  0  0
  8 10  1  0  0  0  0
  8 11  2  0  0  0  0
  9 13  1  0  0  0  0
  9 14  1  0  0  0  0
  9 15  1  0  0  0  0
 10 16  1  0  0  0  0
 10 17  1  0  0  0  0
 10 18  1  0  0  0  0
 19 20  1  0  0  0  0
 20 21  4  0  0  0  0
 20 25  4  0  0  0  0
 21 22  4  0  0  0  0
 21 27  1  0  0  0  0
 22 23  4  0  0  0  0
 22 26  1  0  0  0  0
 23 24  4  0  0  0  0
 23 28  1  0  0  0  0
 24 25  4  0  0  0  0
 24 29  1  0  0  0  0
 25 30  1  0  0  0  0
 26 31  1  0  0  0  0
 26 32  1  0  0  0  0
M  END
> <BCLConfClusterSize>
1

> <ConfClashScore>
0 

> <ConfOneFourInteractionScore>
-0.926987 

> <ConfScore>
0.213568 

> <ConfScorePBest>
0.00282122 

> <ConfTolerance>
0.699254 

> <RosettaParamsInstructions>
M  ROOT 3
M  POLY_N_BB 3
M  POLY_CA_BB 4
M  POLY_C_BB 2
M  POLY_O_BB 5
M  POLY_IGNORE 9 10 11 12 13 14 15 16 17 18 
M  POLY_UPPER 6
M  POLY_LOWER 8
M  POLY_CHG 0
M  POLY_PROPERTIES ALPHA_AA L_AA PROTEIN AROMATIC POLYMER 
M  END

$$$$



 32 32  0  0  0  0  0  0  0  0999 V2000
   -1.8707    2.6294    3.3531 H   0  0  0  1  0  0  0  0  0  0  0  0
   -0.4938    1.0784    3.0895 C   0  0  0  1  0  0  0  0  0  0  0  0
   -0.0110    3.5014    3.1952 N   0  0  0  1  0  0  0  0  0  0  0  0
   -0.9891    2.4794    2.7656 C   0  0  0  1  0  0  0  0  0  0  0  0
    0.6774    0.8839    3.3761 O   0  0  0  1  0  0  0  0  0  0  0  0
   -1.4458    0.1414    3.1162 N   0  0  0  1  0  0  0  0  0  0  0  0
   -0.3251    4.2632    3.7257 H   0  0  0  1  0  0  0  0  0  0  0  0
    1.2862    3.4226    2.8853 C   0  0  0  1  0  0  0  0  0  0  0  0
   -1.1699   -1.2366    3.4941 C   0  0  0  1  0  0  0  0  0  0  0  0
    2.1656    4.5109    3.4582 C   0  0  0  1  0  0  0  0  0  0  0  0
    1.7526    2.5307    2.1815 O   0  0  0  1  0  0  0  0  0  0  0  0
   -2.3617    0.3908    2.8728 H   0  0  0  1  0  0  0  0  0  0  0  0
   -0.1522   -1.4733    3.2633 H   0  0  0  1  0  0  0  0  0  0  0  0
   -1.8199   -1.8916    2.9526 H   0  0  0  1  0  0  0  0  0  0  0  0
   -1.3346   -1.3580    4.5444 H   0  0  0  1  0  0  0  0  0  0  0  0
    1.6276    5.4357    3.4700 H   0  0  0  1  0  0  0  0  0  0  0  0
    3.0421    4.6161    2.8535 H   0  0  0  1  0  0  0  0  0  0  0  0
    2.4496    4.2509    4.4566 H   0  0  0  1  0  0  0  0  0  0  0  0
   -1.6228    7.5417    0.7261 F   0  0  0  1  0  0  0  0  0  0  0  0
   -2.2608    6.3603    0.8314 C   0  0  0  1  0  0  0  0  0  0  0  0
   -1.5345    5.1943    1.0172 C   0  0  0  1  0  0  0  0  0  0  0  0
   -2.1888    3.9813    1.1199 C   0  0  0  1  0  0  0  0  0  0  0  0
   -3.5719    3.9313    1.0424 C   0  0  0  1  0  0  0  0  0  0  0  0
   -4.2963    5.0937    0.8570 C   0  0  0  1  0  0  0  0  0  0  0  0
   -3.6399    6.3103    0.7541 C   0  0  0  1  0  0  0  0  0  0  0  0
   -1.3975    2.7098    1.3166 C   0  0  0  1  0  0  0  0  0  0  0  0
   -0.4971    5.2324    1.0794 H   0  0  0  1  0  0  0  0  0  0  0  0
   -4.0646    3.0190    1.1236 H   0  0  0  1  0  0  0  0  0  0  0  0
   -5.3338    5.0556    0.7949 H   0  0  0  1  0  0  0  0  0  0  0  0
   -4.1852    7.1855    0.6187 H   0  0  0  1  0  0  0  0  0  0  0  0
   -1.9963    1.8830    0.9959 H   0  0  0  1  0  0  0  0  0  0  0  0
   -0.5125    2.7634    0.7176 H   0  0  0  1  0  0  0  0  0  0  0  0
  1  4  1  0  0  0  0
  2  4  1  0  0  0  0
  2  5  2  0  0  0  0
  2  6  1  0  0  0  0
  3  4  1  0  0  0  0
  3  7  1  0  0  0  0
  3  8  1  0  0  0  0
  4 26  1  0  0  0  0
  6  9  1  0  0  0  0
  6 12  1  0  0  0  0
  8 10  1  0  0  0  0
  8 11  2  0  0  0  0
  9 13  1  0  0  0  0
  9 14  1  0  0  0  0
  9 15  1  0  0  0  0
 10 16  1  0  0  0  0
 10 17  1  0  0  0  0
 10 18  1  0  0  0  0
 19 20  1  0  0  0  0
 20 21  4  0  0  0  0
 20 25  4  0  0  0  0
 21 22  4  0  0  0  0
 21 27  1  0  0  0  0
 22 23  4  0  0  0  0
 22 26  1  0  0  0  0
 23 24  4  0  0  0  0
 23 28  1  0  0  0  0
 24 25  4  0  0  0  0
 24 29  1  0  0  0  0
 25 30  1  0  0  0  0
 26 31  1  0  0  0  0
 26 32  1  0  0  0  0
M  END
> <BCLConfClusterSize>
1

> <ConfClashScore>
0 

> <ConfOneFourInteractionScore>
-0.983383 

> <ConfScore>
0.215368 

> <ConfScorePBest>
0.00279274 

> <ConfTolerance>
0.78392 

> <RosettaParamsInstructions>
M  ROOT 3
M  POLY_N_BB 3
M  POLY_CA_BB 4
M  POLY_C_BB 2
M  POLY_O_BB 5
M  POLY_IGNORE 9 10 11 12 13 14 15 16 17 18 
M  POLY_UPPER 6
M  POLY_LOWER 8
M  POLY_CHG 0
M  POLY_PROPERTIES ALPHA_AA L_AA PROTEIN AROMATIC POLYMER 
M  END

$$$$



 32 32  0  0  0  0  0  0  0  0999 V2000
   -0.4152    2.8667   -0.5296 H   0  0  0  1  0  0  0  0  0  0  0  0
    0.0841    0.9582    0.1373 C   0  0  0  1  0  0  0  0  0  0  0  0
   -2.0779    1.7151   -0.8399 N   0  0  0  1  0  0  0  0  0  0  0  0
   -0.9271    2.0933    0.0039 C   0  0  0  1  0  0  0  0  0  0  0  0
   -0.2817   -0.2023    0.2256 O   0  0  0  1  0  0  0  0  0  0  0  0
    1.3578    1.3437    0.2295 N   0  0  0  1  0  0  0  0  0  0  0  0
   -2.2414    2.2134   -1.6678 H   0  0  0  1  0  0  0  0  0  0  0  0
   -2.9043    0.7171   -0.5142 C   0  0  0  1  0  0  0  0  0  0  0  0
    2.4951    0.4424    0.3392 C   0  0  0  1  0  0  0  0  0  0  0  0
   -3.9733    0.3696   -1.5319 C   0  0  0  1  0  0  0  0  0  0  0  0
   -2.7663    0.0545    0.5132 O   0  0  0  1  0  0  0  0  0  0  0  0
    1.5414    2.3063    0.2227 H   0  0  0  1  0  0  0  0  0  0  0  0
    2.3250   -0.4229   -0.2668 H   0  0  0  1  0  0  0  0  0  0  0  0
    2.6166    0.1446    1.3597 H   0  0  0  1  0  0  0  0  0  0  0  0
    3.3800    0.9429    0.0055 H   0  0  0  1  0  0  0  0  0  0  0  0
   -4.8217    1.0061   -1.3903 H   0  0  0  1  0  0  0  0  0  0  0  0
   -4.2683   -0.6510   -1.4047 H   0  0  0  1  0  0  0  0  0  0  0  0
   -3.5844    0.5086   -2.5190 H   0  0  0  1  0  0  0  0  0  0  0  0
   -1.6190    7.5350    0.7271 F   0  0  0  1  0  0  0  0  0  0  0  0
   -2.2609    6.3557    0.8319 C   0  0  0  1  0  0  0  0  0  0  0  0
   -1.5384    5.1873    1.0178 C   0  0  0  1  0  0  0  0  0  0  0  0
   -2.1967    3.9764    1.1200 C   0  0  0  1  0  0  0  0  0  0  0  0
   -3.5799    3.9309    1.0419 C   0  0  0  1  0  0  0  0  0  0  0  0
   -4.3005    5.0957    0.8565 C   0  0  0  1  0  0  0  0  0  0  0  0
   -3.6401    6.3101    0.7541 C   0  0  0  1  0  0  0  0  0  0  0  0
   -1.3608    2.7337    1.3160 C   0  0  0  1  0  0  0  0  0  0  0  0
   -0.5009    5.2220    1.0804 H   0  0  0  1  0  0  0  0  0  0  0  0
   -4.0756    3.0202    1.1228 H   0  0  0  1  0  0  0  0  0  0  0  0
   -5.3380    5.0610    0.7940 H   0  0  0  1  0  0  0  0  0  0  0  0
   -4.1824    7.1871    0.6186 H   0  0  0  1  0  0  0  0  0  0  0  0
   -0.4855    2.9963    1.8725 H   0  0  0  1  0  0  0  0  0  0  0  0
   -1.9354    2.0206    1.8694 H   0  0  0  1  0  0  0  0  0  0  0  0
  1  4  1  0  0  0  0
  2  4  1  0  0  0  0
  2  5  2  0  0  0  0
  2  6  1  0  0  0  0
  3  4  1  0  0  0  0
  3  7  1  0  0  0  0
  3  8  1  0  0  0  0
  4 26  1  0  0  0  0
  6  9  1  0  0  0  0
  6 12  1  0  0  0  0
  8 10  1  0  0  0  0
  8 11  2  0  0  0  0
  9 13  1  0  0  0  0
  9 14  1  0  0  0  0
  9 15  1  0  0  0  0
 10 16  1  0  0  0  0
 10 17  1  0  0  0  0
 10 18  1  0  0  0  0
 19 20  1  0  0  0  0
 20 21  4  0  0  0  0
 20 25  4  0  0  0  0
 21 22  4  0  0  0  0
 21 27  1  0  0  0  0
 22 23  4  0  0  0  0
 22 26  1  0  0  0  0
 23 24  4  0  0  0  0
 23 28  1  0  0  0  0
 24 25  4  0  0  0  0
 24 29  1  0  0  0  0
 25 30  1  0  0  0  0
 26 31  1  0  0  0  0
 26 32  1  0  0  0  0
M  END
> <BCLConfClusterSize>
1

> <ConfClashScore>
0 

> <ConfOneFourInteractionScore>
-0.984592 

> <ConfScore>
0.220001 

> <ConfScorePBest>
0.00276426 

> <ConfTolerance>
0.5159 

> <RosettaParamsInstructions>
M  ROOT 3
M  POLY_N_BB 3
M  POLY_CA_BB 4
M  POLY_C_BB 2
M  POLY_O_BB 5
M  POLY_IGNORE 9 10 11 12 13 14 15 16 17 18 
M  POLY_UPPER 6
M  POLY_LOWER 8
M  POLY_CHG 0
M  POLY_PROPERTIES ALPHA_AA L_AA PROTEIN AROMATIC POLYMER 
M  END

$$$$



 32 32  0  0  0  0  0  0  0  0999 V2000
   -1.8781    2.4275    3.3629 H   0  0  0  1  0  0  0  0  0  0  0  0
   -0.3727    1.0174    2.8437 C   0  0  0  1  0  0  0  0  0  0  0  0
   -0.0276    3.3626    3.2535 N   0  0  0  1  0  0  0  0  0  0  0  0
   -1.0002    2.4051    2.7516 C   0  0  0  1  0  0  0  0  0  0  0  0
    0.8448    0.8718    2.9145 O   0  0  0  1  0  0  0  0  0  0  0  0
   -1.2291   -0.0081    2.8417 N   0  0  0  1  0  0  0  0  0  0  0  0
    0.7336    3.6051    2.6859 H   0  0  0  1  0  0  0  0  0  0  0  0
   -0.1399    3.9445    4.5070 C   0  0  0  1  0  0  0  0  0  0  0  0
   -2.6633    0.2377    2.8200 C   0  0  0  1  0  0  0  0  0  0  0  0
    0.8683    4.9911    4.9243 C   0  0  0  1  0  0  0  0  0  0  0  0
   -1.0510    3.5914    5.2333 O   0  0  0  1  0  0  0  0  0  0  0  0
   -0.8907   -0.9277    2.8548 H   0  0  0  1  0  0  0  0  0  0  0  0
   -2.9651    0.6733    3.7496 H   0  0  0  1  0  0  0  0  0  0  0  0
   -3.1812   -0.6873    2.6751 H   0  0  0  1  0  0  0  0  0  0  0  0
   -2.8980    0.9077    2.0195 H   0  0  0  1  0  0  0  0  0  0  0  0
    0.3668    5.9196    5.1015 H   0  0  0  1  0  0  0  0  0  0  0  0
    1.5915    5.1196    4.1462 H   0  0  0  1  0  0  0  0  0  0  0  0
    1.3602    4.6750    5.8204 H   0  0  0  1  0  0  0  0  0  0  0  0
   -1.6228    7.5417    0.7261 F   0  0  0  1  0  0  0  0  0  0  0  0
   -2.2608    6.3603    0.8314 C   0  0  0  1  0  0  0  0  0  0  0  0
   -1.5345    5.1943    1.0172 C   0  0  0  1  0  0  0  0  0  0  0  0
   -2.1888    3.9813    1.1199 C   0  0  0  1  0  0  0  0  0  0  0  0
   -3.5719    3.9313    1.0424 C   0  0  0  1  0  0  0  0  0  0  0  0
   -4.2963    5.0937    0.8570 C   0  0  0  1  0  0  0  0  0  0  0  0
   -3.6399    6.3103    0.7541 C   0  0  0  1  0  0  0  0  0  0  0  0
   -1.3975    2.7098    1.3166 C   0  0  0  1  0  0  0  0  0  0  0  0
   -0.4971    5.2324    1.0794 H   0  0  0  1  0  0  0  0  0  0  0  0
   -4.0646    3.0190    1.1236 H   0  0  0  1  0  0  0  0  0  0  0  0
   -5.3338    5.0556    0.7949 H   0  0  0  1  0  0  0  0  0  0  0  0
   -4.1852    7.1855    0.6187 H   0  0  0  1  0  0  0  0  0  0  0  0
   -1.9894    1.8938    0.9576 H   0  0  0  1  0  0  0  0  0  0  0  0
   -0.5025    2.7848    0.7350 H   0  0  0  1  0  0  0  0  0  0  0  0
  1  4  1  0  0  0  0
  2  4  1  0  0  0  0
  2  5  2  0  0  0  0
  2  6  1  0  0  0  0
  3  4  1  0  0  0  0
  3  7  1  0  0  0  0
  3  8  1  0  0  0  0
  4 26  1  0  0  0  0
  6  9  1  0  0  0  0
  6 12  1  0  0  0  0
  8 10  1  0  0  0  0
  8 11  2  0  0  0  0
  9 13  1  0  0  0  0
  9 14  1  0  0  0  0
  9 15  1  0  0  0  0
 10 16  1  0  0  0  0
 10 17  1  0  0  0  0
 10 18  1  0  0  0  0
 19 20  1  0  0  0  0
 20 21  4  0  0  0  0
 20 25  4  0  0  0  0
 21 22  4  0  0  0  0
 21 27  1  0  0  0  0
 22 23  4  0  0  0  0
 22 26  1  0  0  0  0
 23 24  4  0  0  0  0
 23 28  1  0  0  0  0
 24 25  4  0  0  0  0
 24 29  1  0  0  0  0
 25 30  1  0  0  0  0
 26 31  1  0  0  0  0
 26 32  1  0  0  0  0
M  END
> <BCLConfClusterSize>
1

> <ConfClashScore>
0 

> <ConfOneFourInteractionScore>
-0.981931 

> <ConfScore>
0.232512 

> <ConfScorePBest>
0.00273578 

> <ConfTolerance>
0.992433 

> <RosettaParamsInstructions>
M  ROOT 3
M  POLY_N_BB 3
M  POLY_CA_BB 4
M  POLY_C_BB 2
M  POLY_O_BB 5
M  POLY_IGNORE 9 10 11 12 13 14 15 16 17 18 
M  POLY_UPPER 6
M  POLY_LOWER 8
M  POLY_CHG 0
M  POLY_PROPERTIES ALPHA_AA L_AA PROTEIN AROMATIC POLYMER 
M  END

$$$$



 32 32  0  0  0  0  0  0  0  0999 V2000
   -1.1114    2.9271    3.4231 H   0  0  0  1  0  0  0  0  0  0  0  0
    0.1276    1.3425    2.7283 C   0  0  0  1  0  0  0  0  0  0  0  0
    0.5281    3.7397    2.4284 N   0  0  0  1  0  0  0  0  0  0  0  0
   -0.4985    2.7182    2.5713 C   0  0  0  1  0  0  0  0  0  0  0  0
   -0.4612    0.3287    2.3622 O   0  0  0  1  0  0  0  0  0  0  0  0
    1.3477    1.3175    3.2858 N   0  0  0  1  0  0  0  0  0  0  0  0
    0.4780    4.5422    2.9888 H   0  0  0  1  0  0  0  0  0  0  0  0
    1.5364    3.6217    1.5599 C   0  0  0  1  0  0  0  0  0  0  0  0
    2.0366    0.0730    3.5933 C   0  0  0  1  0  0  0  0  0  0  0  0
    2.5494    4.7500    1.5693 C   0  0  0  1  0  0  0  0  0  0  0  0
    1.6522    2.6661    0.7938 O   0  0  0  1  0  0  0  0  0  0  0  0
    1.7904    2.1669    3.4932 H   0  0  0  1  0  0  0  0  0  0  0  0
    1.5155   -0.4402    4.3742 H   0  0  0  1  0  0  0  0  0  0  0  0
    3.0351    0.2878    3.9124 H   0  0  0  1  0  0  0  0  0  0  0  0
    2.0659   -0.5435    2.7193 H   0  0  0  1  0  0  0  0  0  0  0  0
    2.0842    5.6506    1.2267 H   0  0  0  1  0  0  0  0  0  0  0  0
    3.3651    4.5020    0.9228 H   0  0  0  1  0  0  0  0  0  0  0  0
    2.9137    4.8936    2.5651 H   0  0  0  1  0  0  0  0  0  0  0  0
   -1.6190    7.5350    0.7271 F   0  0  0  1  0  0  0  0  0  0  0  0
   -2.2609    6.3557    0.8319 C   0  0  0  1  0  0  0  0  0  0  0  0
   -1.5384    5.1873    1.0178 C   0  0  0  1  0  0  0  0  0  0  0  0
   -2.1967    3.9764    1.1200 C   0  0  0  1  0  0  0  0  0  0  0  0
   -3.5799    3.9309    1.0419 C   0  0  0  1  0  0  0  0  0  0  0  0
   -4.3005    5.0957    0.8565 C   0  0  0  1  0  0  0  0  0  0  0  0
   -3.6401    6.3101    0.7541 C   0  0  0  1  0  0  0  0  0  0  0  0
   -1.3608    2.7337    1.3160 C   0  0  0  1  0  0  0  0  0  0  0  0
   -0.5009    5.2220    1.0804 H   0  0  0  1  0  0  0  0  0  0  0  0
   -4.0756    3.0202    1.1228 H   0  0  0  1  0  0  0  0  0  0  0  0
   -5.3380    5.0610    0.7940 H   0  0  0  1  0  0  0  0  0  0  0  0
   -4.1824    7.1871    0.6186 H   0  0  0  1  0  0  0  0  0  0  0  0
   -2.0228    1.8942    1.3599 H   0  0  0  1  0  0  0  0  0  0  0  0
   -0.7137    2.6343    0.4697 H   0  0  0  1  0  0  0  0  0  0  0  0
  1  4  1  0  0  0  0
  2  4  1  0  0  0  0
  2  5  2  0  0  0  0
  2  6  1  0  0  0  0
  3  4  1  0  0  0  0
  3  7  1  0  0  0  0
  3  8  1  0  0  0  0
  4 26  1  0  0  0  0
  6  9  1  0  0  0  0
  6 12  1  0  0  0  0
  8 10  1  0  0  0  0
  8 11  2  0  0  0  0
  9 13  1  0  0  0  0
  9 14  1  0  0  0  0
  9 15  1  0  0  0  0
 10 16  1  0  0  0  0
 10 17  1  0  0  0  0
 10 18  1  0  0  0  0
 19 20  1  0  0  0  0
 20 21  4  0  0  0  0
 20 25  4  0  0  0  0
 21 22  4  0  0  0  0
 21 27  1  0  0  0  0
 22 23  4  0  0  0  0
 22 26  1  0  0  0  0
 23 24  4  0  0  0  0
 23 28  1  0  0  0  0
 24 25  4  0  0  0  0
 24 29  1  0  0  0  0
 25 30  1  0  0  0  0
 26 31  1  0  0  0  0
 26 32  1  0  0  0  0
M  END
> <BCLConfClusterSize>
1

> <ConfClashScore>
0 

> <ConfOneFourInteractionScore>
-0.953489 

> <ConfScore>
0.233124 

> <ConfScorePBest>
0.0027073 

> <ConfTolerance>
0.751303 

> <RosettaParamsInstructions>
M  ROOT 3
M  POLY_N_BB 3
M  POLY_CA_BB 4
M  POLY_C_BB 2
M  POLY_O_BB 5
M  POLY_IGNORE 9 10 11 12 13 14 15 16 17 18 
M  POLY_UPPER 6
M  POLY_LOWER 8
M  POLY_CHG 0
M  POLY_PROPERTIES ALPHA_AA L_AA PROTEIN AROMATIC POLYMER 
M  END

$$$$



 32 32  0  0  0  0  0  0  0  0999 V2000
   -1.2267    2.2402   -0.7239 H   0  0  0  1  0  0  0  0  0  0  0  0
   -0.4517    0.6023    0.3555 C   0  0  0  1  0  0  0  0  0  0  0  0
   -2.8349    1.2611    0.1121 N   0  0  0  1  0  0  0  0  0  0  0  0
   -1.4589    1.7383    0.1921 C   0  0  0  1  0  0  0  0  0  0  0  0
    0.5602    0.7504    1.0207 O   0  0  0  1  0  0  0  0  0  0  0  0
   -0.7294   -0.5093   -0.3441 N   0  0  0  1  0  0  0  0  0  0  0  0
   -3.3627    1.4712   -0.6864 H   0  0  0  1  0  0  0  0  0  0  0  0
   -3.4007    0.5475    1.0897 C   0  0  0  1  0  0  0  0  0  0  0  0
    0.1351   -1.6796   -0.3193 C   0  0  0  1  0  0  0  0  0  0  0  0
   -4.8644    0.2042    0.8922 C   0  0  0  1  0  0  0  0  0  0  0  0
   -2.7893    0.1831    2.0932 O   0  0  0  1  0  0  0  0  0  0  0  0
   -1.5426   -0.5334   -0.8904 H   0  0  0  1  0  0  0  0  0  0  0  0
    1.0442   -1.4414    0.1923 H   0  0  0  1  0  0  0  0  0  0  0  0
    0.3584   -1.9791   -1.3220 H   0  0  0  1  0  0  0  0  0  0  0  0
   -0.3615   -2.4789    0.1899 H   0  0  0  1  0  0  0  0  0  0  0  0
   -4.9701   -0.4317    0.0381 H   0  0  0  1  0  0  0  0  0  0  0  0
   -5.4237    1.1034    0.7384 H   0  0  0  1  0  0  0  0  0  0  0  0
   -5.2323   -0.3012    1.7606 H   0  0  0  1  0  0  0  0  0  0  0  0
   -1.6151    7.5283    0.7282 F   0  0  0  1  0  0  0  0  0  0  0  0
   -2.2609    6.3510    0.8325 C   0  0  0  1  0  0  0  0  0  0  0  0
   -1.5422    5.1803    1.0184 C   0  0  0  1  0  0  0  0  0  0  0  0
   -2.2044    3.9715    1.1201 C   0  0  0  1  0  0  0  0  0  0  0  0
   -3.5877    3.9304    1.0415 C   0  0  0  1  0  0  0  0  0  0  0  0
   -4.3045    5.0975    0.8561 C   0  0  0  1  0  0  0  0  0  0  0  0
   -3.6402    6.3099    0.7541 C   0  0  0  1  0  0  0  0  0  0  0  0
   -1.3256    2.7585    1.3152 C   0  0  0  1  0  0  0  0  0  0  0  0
   -0.5046    5.2116    1.0814 H   0  0  0  1  0  0  0  0  0  0  0  0
   -4.0863    3.0212    1.1220 H   0  0  0  1  0  0  0  0  0  0  0  0
   -5.3421    5.0661    0.7931 H   0  0  0  1  0  0  0  0  0  0  0  0
   -4.1797    7.1886    0.6186 H   0  0  0  1  0  0  0  0  0  0  0  0
   -0.3064    3.0807    1.3635 H   0  0  0  1  0  0  0  0  0  0  0  0
   -1.5953    2.2873    2.2372 H   0  0  0  1  0  0  0  0  0  0  0  0
  1  4  1  0  0  0  0
  2  4  1  0  0  0  0
  2  5  2  0  0  0  0
  2  6  1  0  0  0  0
  3  4  1  0  0  0  0
  3  7  1  0  0  0  0
  3  8  1  0  0  0  0
  4 26  1  0  0  0  0
  6  9  1  0  0  0  0
  6 12  1  0  0  0  0
  8 10  1  0  0  0  0
  8 11  2  0  0  0  0
  9 13  1  0  0  0  0
  9 14  1  0  0  0  0
  9 15  1  0  0  0  0
 10 16  1  0  0  0  0
 10 17  1  0  0  0  0
 10 18  1  0  0  0  0
 19 20  1  0  0  0  0
 20 21  4  0  0  0  0
 20 25  4  0  0  0  0
 21 22  4  0  0  0  0
 21 27  1  0  0  0  0
 22 23  4  0  0  0  0
 22 26  1  0  0  0  0
 23 24  4  0  0  0  0
 23 28  1  0  0  0  0
 24 25  4  0  0  0  0
 24 29  1  0  0  0  0
 25 30  1  0  0  0  0
 26 31  1  0  0  0  0
 26 32  1  0  0  0  0
M  END
> <BCLConfClusterSize>
1

> <ConfClashScore>
0 

> <ConfOneFourInteractionScore>
-0.953489 

> <ConfScore>
0.242813 

> <ConfScorePBest>
0.00267882 

> <ConfTolerance>
0.575367 

> <RosettaParamsInstructions>
M  ROOT 3
M  POLY_N_BB 3
M  POLY_CA_BB 4
M  POLY_C_BB 2
M  POLY_O_BB 5
M  POLY_IGNORE 9 10 11 12 13 14 15 16 17 18 
M  POLY_UPPER 6
M  POLY_LOWER 8
M  POLY_CHG 0
M  POLY_PROPERTIES ALPHA_AA L_AA PROTEIN AROMATIC POLYMER 
M  END

$$$$



 32 32  0  0  0  0  0  0  0  0999 V2000
    0.5861    2.8959    0.5154 H   0  0  0  1  0  0  0  0  0  0  0  0
   -0.2482    1.0583   -0.1737 C   0  0  0  1  0  0  0  0  0  0  0  0
   -0.7516    3.2581   -1.0426 N   0  0  0  1  0  0  0  0  0  0  0  0
   -0.3582    2.5395    0.1603 C   0  0  0  1  0  0  0  0  0  0  0  0
    0.6663    0.3781    0.2896 O   0  0  0  1  0  0  0  0  0  0  0  0
   -1.2514    0.5762   -0.9128 N   0  0  0  1  0  0  0  0  0  0  0  0
   -1.6360    3.6803   -1.0493 H   0  0  0  1  0  0  0  0  0  0  0  0
    0.0095    3.3867   -2.1491 C   0  0  0  1  0  0  0  0  0  0  0  0
   -1.3511   -0.8327   -1.2636 C   0  0  0  1  0  0  0  0  0  0  0  0
   -0.4754    4.3126   -3.2416 C   0  0  0  1  0  0  0  0  0  0  0  0
    1.0674    2.7699   -2.2681 O   0  0  0  1  0  0  0  0  0  0  0  0
   -1.9441    1.1927   -1.2296 H   0  0  0  1  0  0  0  0  0  0  0  0
   -2.3155   -1.2028   -0.9847 H   0  0  0  1  0  0  0  0  0  0  0  0
   -0.5943   -1.3835   -0.7453 H   0  0  0  1  0  0  0  0  0  0  0  0
   -1.2168   -0.9475   -2.3190 H   0  0  0  1  0  0  0  0  0  0  0  0
    0.3577    4.6410   -3.8274 H   0  0  0  1  0  0  0  0  0  0  0  0
   -0.9583    5.1603   -2.8021 H   0  0  0  1  0  0  0  0  0  0  0  0
   -1.1687    3.7918   -3.8685 H   0  0  0  1  0  0  0  0  0  0  0  0
   -1.6229    7.5419    0.7201 F   0  0  0  1  0  0  0  0  0  0  0  0
   -2.2607    6.3610    0.8321 C   0  0  0  1  0  0  0  0  0  0  0  0
   -1.5347    5.1973    1.0326 C   0  0  0  1  0  0  0  0  0  0  0  0
   -2.1888    3.9847    1.1423 C   0  0  0  1  0  0  0  0  0  0  0  0
   -3.5713    3.9330    1.0571 C   0  0  0  1  0  0  0  0  0  0  0  0
   -4.2955    5.0931    0.8572 C   0  0  0  1  0  0  0  0  0  0  0  0
   -3.6393    6.3092    0.7473 C   0  0  0  1  0  0  0  0  0  0  0  0
   -1.4017    2.7007    1.2580 C   0  0  0  1  0  0  0  0  0  0  0  0
   -0.4977    5.2366    1.1005 H   0  0  0  1  0  0  0  0  0  0  0  0
   -4.0638    3.0211    1.1436 H   0  0  0  1  0  0  0  0  0  0  0  0
   -5.3325    5.0537    0.7893 H   0  0  0  1  0  0  0  0  0  0  0  0
   -4.1844    7.1828    0.6009 H   0  0  0  1  0  0  0  0  0  0  0  0
   -0.9040    2.6906    2.2052 H   0  0  0  1  0  0  0  0  0  0  0  0
   -2.0830    1.8775    1.2037 H   0  0  0  1  0  0  0  0  0  0  0  0
  1  4  1  0  0  0  0
  2  4  1  0  0  0  0
  2  5  2  0  0  0  0
  2  6  1  0  0  0  0
  3  4  1  0  0  0  0
  3  7  1  0  0  0  0
  3  8  1  0  0  0  0
  4 26  1  0  0  0  0
  6  9  1  0  0  0  0
  6 12  1  0  0  0  0
  8 10  1  0  0  0  0
  8 11  2  0  0  0  0
  9 13  1  0  0  0  0
  9 14  1  0  0  0  0
  9 15  1  0  0  0  0
 10 16  1  0  0  0  0
 10 17  1  0  0  0  0
 10 18  1  0  0  0  0
 19 20  1  0  0  0  0
 20 21  4  0  0  0  0
 20 25  4  0  0  0  0
 21 22  4  0  0  0  0
 21 27  1  0  0  0  0
 22 23  4  0  0  0  0
 22 26  1  0  0  0  0
 23 24  4  0  0  0  0
 23 28  1  0  0  0  0
 24 25  4  0  0  0  0
 24 29  1  0  0  0  0
 25 30  1  0  0  0  0
 26 31  1  0  0  0  0
 26 32  1  0  0  0  0
M  END
> <BCLConfClusterSize>
1

> <ConfClashScore>
0 

> <ConfOneFourInteractionScore>
-0.937067 

> <ConfScore>
0.246883 

> <ConfScorePBest>
0.00265034 

> <ConfTolerance>
0.996039 

> <RosettaParamsInstructions>
M  ROOT 3
M  POLY_N_BB 3
M  POLY_CA_BB 4
M  POLY_C_BB 2
M  POLY_O_BB 5
M  POLY_IGNORE 9 10 11 12 13 14 15 16 17 18 
M  POLY_UPPER 6
M  POLY_LOWER 8
M  POLY_CHG 0
M  POLY_PROPERTIES ALPHA_AA L_AA PROTEIN AROMATIC POLYMER 
M  END

$$$$



 32 32  0  0  0  0  0  0  0  0999 V2000
    0.1527    2.2867    2.7355 H   0  0  0  1  0  0  0  0  0  0  0  0
   -1.0249    3.8821    3.4835 C   0  0  0  1  0  0  0  0  0  0  0  0
   -1.6554    1.5201    3.4086 N   0  0  0  1  0  0  0  0  0  0  0  0
   -0.8811    2.5622    2.7510 C   0  0  0  1  0  0  0  0  0  0  0  0
   -2.1278    4.3983    3.6586 O   0  0  0  1  0  0  0  0  0  0  0  0
    0.1184    4.4352    3.9184 N   0  0  0  1  0  0  0  0  0  0  0  0
   -2.6095    1.6723    3.5730 H   0  0  0  1  0  0  0  0  0  0  0  0
   -1.1063    0.3534    3.7992 C   0  0  0  1  0  0  0  0  0  0  0  0
    0.1541    5.7366    4.5688 C   0  0  0  1  0  0  0  0  0  0  0  0
   -2.0751   -0.5661    4.5169 C   0  0  0  1  0  0  0  0  0  0  0  0
    0.0659    0.0326    3.6080 O   0  0  0  1  0  0  0  0  0  0  0  0
    0.9581    3.9456    3.7937 H   0  0  0  1  0  0  0  0  0  0  0  0
   -0.3162    6.4633    3.9397 H   0  0  0  1  0  0  0  0  0  0  0  0
    1.1711    6.0204    4.7425 H   0  0  0  1  0  0  0  0  0  0  0  0
   -0.3662    5.6830    5.5022 H   0  0  0  1  0  0  0  0  0  0  0  0
   -2.8679   -0.8387    3.8520 H   0  0  0  1  0  0  0  0  0  0  0  0
   -2.4816   -0.0611    5.3681 H   0  0  0  1  0  0  0  0  0  0  0  0
   -1.5594   -1.4473    4.8369 H   0  0  0  1  0  0  0  0  0  0  0  0
   -1.5886    7.5181    0.7310 F   0  0  0  1  0  0  0  0  0  0  0  0
   -2.2671    6.3589    0.8311 C   0  0  0  1  0  0  0  0  0  0  0  0
   -1.5418    5.1924    1.0170 C   0  0  0  1  0  0  0  0  0  0  0  0
   -2.1972    3.9799    1.1195 C   0  0  0  1  0  0  0  0  0  0  0  0
   -3.5803    3.9310    1.0419 C   0  0  0  1  0  0  0  0  0  0  0  0
   -4.3037    5.0941    0.8565 C   0  0  0  1  0  0  0  0  0  0  0  0
   -3.6462    6.3101    0.7537 C   0  0  0  1  0  0  0  0  0  0  0  0
   -1.3583    2.7392    1.3155 C   0  0  0  1  0  0  0  0  0  0  0  0
   -0.5044    5.2295    1.0793 H   0  0  0  1  0  0  0  0  0  0  0  0
   -4.0737    3.0192    1.1230 H   0  0  0  1  0  0  0  0  0  0  0  0
   -5.3412    5.0569    0.7942 H   0  0  0  1  0  0  0  0  0  0  0  0
   -4.1907    7.1858    0.6183 H   0  0  0  1  0  0  0  0  0  0  0  0
   -1.9436    1.8858    1.0435 H   0  0  0  1  0  0  0  0  0  0  0  0
   -0.5018    2.8029    0.6773 H   0  0  0  1  0  0  0  0  0  0  0  0
  1  4  1  0  0  0  0
  2  4  1  0  0  0  0
  2  5  2  0  0  0  0
  2  6  1  0  0  0  0
  3  4  1  0  0  0  0
  3  7  1  0  0  0  0
  3  8  1  0  0  0  0
  4 26  1  0  0  0  0
  6  9  1  0  0  0  0
  6 12  1  0  0  0  0
  8 10  1  0  0  0  0
  8 11  2  0  0  0  0
  9 13  1  0  0  0  0
  9 14  1  0  0  0  0
  9 15  1  0  0  0  0
 10 16  1  0  0  0  0
 10 17  1  0  0  0  0
 10 18  1  0  0  0  0
 19 20  1  0  0  0  0
 20 21  4  0  0  0  0
 20 25  4  0  0  0  0
 21 22  4  0  0  0  0
 21 27  1  0  0  0  0
 22 23  4  0  0  0  0
 22 26  1  0  0  0  0
 23 24  4  0  0  0  0
 23 28  1  0  0  0  0
 24 25  4  0  0  0  0
 24 29  1  0  0  0  0
 25 30  1  0  0  0  0
 26 31  1  0  0  0  0
 26 32  1  0  0  0  0
M  END
> <BCLConfClusterSize>
1

> <ConfClashScore>
0 

> <ConfOneFourInteractionScore>
-0.97253 

> <ConfScore>
0.249327 

> <ConfScorePBest>
0.00262186 

> <ConfTolerance>
1.14406 

> <RosettaParamsInstructions>
M  ROOT 3
M  POLY_N_BB 3
M  POLY_CA_BB 4
M  POLY_C_BB 2
M  POLY_O_BB 5
M  POLY_IGNORE 9 10 11 12 13 14 15 16 17 18 
M  POLY_UPPER 6
M  POLY_LOWER 8
M  POLY_CHG 0
M  POLY_PROPERTIES ALPHA_AA L_AA PROTEIN AROMATIC POLYMER 
M  END

$$$$



 32 32  0  0  0  0  0  0  0  0999 V2000
   -0.8088    2.6180   -0.7033 H   0  0  0  1  0  0  0  0  0  0  0  0
   -0.1458    0.8380    0.2031 C   0  0  0  1  0  0  0  0  0  0  0  0
   -2.4640    1.4164   -0.4603 N   0  0  0  1  0  0  0  0  0  0  0  0
   -1.1883    1.9314    0.0243 C   0  0  0  1  0  0  0  0  0  0  0  0
   -0.4730   -0.3403    0.3379 O   0  0  0  1  0  0  0  0  0  0  0  0
    1.1332    1.2460    0.2031 N   0  0  0  1  0  0  0  0  0  0  0  0
   -3.2064    1.3209    0.1722 H   0  0  0  1  0  0  0  0  0  0  0  0
   -2.6556    1.0704   -1.7365 C   0  0  0  1  0  0  0  0  0  0  0  0
    1.5477    2.6360    0.0854 C   0  0  0  1  0  0  0  0  0  0  0  0
   -4.0085    0.4784   -2.0605 C   0  0  0  1  0  0  0  0  0  0  0  0
   -1.7978    1.2167   -2.6062 O   0  0  0  1  0  0  0  0  0  0  0  0
    1.8322    0.5644    0.2876 H   0  0  0  1  0  0  0  0  0  0  0  0
    2.5320    2.6811   -0.3317 H   0  0  0  1  0  0  0  0  0  0  0  0
    1.5499    3.0905    1.0540 H   0  0  0  1  0  0  0  0  0  0  0  0
    0.8659    3.1585   -0.5528 H   0  0  0  1  0  0  0  0  0  0  0  0
   -4.7198    0.7885   -1.3237 H   0  0  0  1  0  0  0  0  0  0  0  0
   -3.9393   -0.5893   -2.0619 H   0  0  0  1  0  0  0  0  0  0  0  0
   -4.3240    0.8171   -3.0252 H   0  0  0  1  0  0  0  0  0  0  0  0
   -1.6228    7.5417    0.7261 F   0  0  0  1  0  0  0  0  0  0  0  0
   -2.2608    6.3603    0.8314 C   0  0  0  1  0  0  0  0  0  0  0  0
   -1.5345    5.1943    1.0172 C   0  0  0  1  0  0  0  0  0  0  0  0
   -2.1888    3.9813    1.1199 C   0  0  0  1  0  0  0  0  0  0  0  0
   -3.5719    3.9313    1.0424 C   0  0  0  1  0  0  0  0  0  0  0  0
   -4.2963    5.0937    0.8570 C   0  0  0  1  0  0  0  0  0  0  0  0
   -3.6399    6.3103    0.7541 C   0  0  0  1  0  0  0  0  0  0  0  0
   -1.3975    2.7098    1.3166 C   0  0  0  1  0  0  0  0  0  0  0  0
   -0.4971    5.2324    1.0794 H   0  0  0  1  0  0  0  0  0  0  0  0
   -4.0646    3.0190    1.1236 H   0  0  0  1  0  0  0  0  0  0  0  0
   -5.3338    5.0556    0.7949 H   0  0  0  1  0  0  0  0  0  0  0  0
   -4.1852    7.1855    0.6187 H   0  0  0  1  0  0  0  0  0  0  0  0
   -0.4396    2.9638    1.7201 H   0  0  0  1  0  0  0  0  0  0  0  0
   -1.9227    2.0855    2.0090 H   0  0  0  1  0  0  0  0  0  0  0  0
  1  4  1  0  0  0  0
  2  4  1  0  0  0  0
  2  5  2  0  0  0  0
  2  6  1  0  0  0  0
  3  4  1  0  0  0  0
  3  7  1  0  0  0  0
  3  8  1  0  0  0  0
  4 26  1  0  0  0  0
  6  9  1  0  0  0  0
  6 12  1  0  0  0  0
  8 10  1  0  0  0  0
  8 11  2  0  0  0  0
  9 13  1  0  0  0  0
  9 14  1  0  0  0  0
  9 15  1  0  0  0  0
 10 16  1  0  0  0  0
 10 17  1  0  0  0  0
 10 18  1  0  0  0  0
 19 20  1  0  0  0  0
 20 21  4  0  0  0  0
 20 25  4  0  0  0  0
 21 22  4  0  0  0  0
 21 27  1  0  0  0  0
 22 23  4  0  0  0  0
 22 26  1  0  0  0  0
 23 24  4  0  0  0  0
 23 28  1  0  0  0  0
 24 25  4  0  0  0  0
 24 29  1  0  0  0  0
 25 30  1  0  0  0  0
 26 31  1  0  0  0  0
 26 32  1  0  0  0  0
M  END
> <BCLConfClusterSize>
1

> <ConfClashScore>
0 

> <ConfOneFourInteractionScore>
-0.981931 

> <ConfScore>
0.251332 

> <ConfScorePBest>
0.00259338 

> <ConfTolerance>
1.13807 

> <RosettaParamsInstructions>
M  ROOT 3
M  POLY_N_BB 3
M  POLY_CA_BB 4
M  POLY_C_BB 2
M  POLY_O_BB 5
M  POLY_IGNORE 9 10 11 12 13 14 15 16 17 18 
M  POLY_UPPER 6
M  POLY_LOWER 8
M  POLY_CHG 0
M  POLY_PROPERTIES ALPHA_AA L_AA PROTEIN AROMATIC POLYMER 
M  END

$$$$



 32 32  0  0  0  0  0  0  0  0999 V2000
   -2.8612    1.7522    2.4769 H   0  0  0  1  0  0  0  0  0  0  0  0
   -1.1137    0.5878    2.6169 C   0  0  0  1  0  0  0  0  0  0  0  0
   -1.5806    2.7440    3.7491 N   0  0  0  1  0  0  0  0  0  0  0  0
   -1.8104    1.9387    2.5549 C   0  0  0  1  0  0  0  0  0  0  0  0
   -0.0853    0.3699    1.9778 O   0  0  0  1  0  0  0  0  0  0  0  0
   -1.6928   -0.3314    3.4055 N   0  0  0  1  0  0  0  0  0  0  0  0
   -0.9232    3.4707    3.7480 H   0  0  0  1  0  0  0  0  0  0  0  0
   -2.2978    2.4602    4.8538 C   0  0  0  1  0  0  0  0  0  0  0  0
   -1.1544   -1.6563    3.6749 C   0  0  0  1  0  0  0  0  0  0  0  0
   -2.1857    3.4467    6.0230 C   0  0  0  1  0  0  0  0  0  0  0  0
   -3.0761    1.5101    4.9258 O   0  0  0  1  0  0  0  0  0  0  0  0
   -2.5422   -0.0922    3.8319 H   0  0  0  1  0  0  0  0  0  0  0  0
   -1.1301   -1.8239    4.7314 H   0  0  0  1  0  0  0  0  0  0  0  0
   -0.1622   -1.7248    3.2802 H   0  0  0  1  0  0  0  0  0  0  0  0
   -1.7750   -2.3943    3.2111 H   0  0  0  1  0  0  0  0  0  0  0  0
   -1.4850    3.0727    6.7400 H   0  0  0  1  0  0  0  0  0  0  0  0
   -3.1434    3.5605    6.4864 H   0  0  0  1  0  0  0  0  0  0  0  0
   -1.8505    4.3951    5.6583 H   0  0  0  1  0  0  0  0  0  0  0  0
   -1.5924    7.5248    0.7300 F   0  0  0  1  0  0  0  0  0  0  0  0
   -2.2671    6.3635    0.8306 C   0  0  0  1  0  0  0  0  0  0  0  0
   -1.5379    5.1994    1.0164 C   0  0  0  1  0  0  0  0  0  0  0  0
   -2.1893    3.9848    1.1194 C   0  0  0  1  0  0  0  0  0  0  0  0
   -3.5723    3.9314    1.0423 C   0  0  0  1  0  0  0  0  0  0  0  0
   -4.2996    5.0921    0.8570 C   0  0  0  1  0  0  0  0  0  0  0  0
   -3.6461    6.3102    0.7537 C   0  0  0  1  0  0  0  0  0  0  0  0
   -1.3949    2.7153    1.3161 C   0  0  0  1  0  0  0  0  0  0  0  0
   -0.5006    5.2399    1.0783 H   0  0  0  1  0  0  0  0  0  0  0  0
   -4.0627    3.0180    1.1239 H   0  0  0  1  0  0  0  0  0  0  0  0
   -5.3369    5.0515    0.7952 H   0  0  0  1  0  0  0  0  0  0  0  0
   -4.1935    7.1841    0.6183 H   0  0  0  1  0  0  0  0  0  0  0  0
   -1.5348    2.0898    0.4593 H   0  0  0  1  0  0  0  0  0  0  0  0
   -0.3600    2.9716    1.4061 H   0  0  0  1  0  0  0  0  0  0  0  0
  1  4  1  0  0  0  0
  2  4  1  0  0  0  0
  2  5  2  0  0  0  0
  2  6  1  0  0  0  0
  3  4  1  0  0  0  0
  3  7  1  0  0  0  0
  3  8  1  0  0  0  0
  4 26  1  0  0  0  0
  6  9  1  0  0  0  0
  6 12  1  0  0  0  0
  8 10  1  0  0  0  0
  8 11  2  0  0  0  0
  9 13  1  0  0  0  0
  9 14  1  0  0  0  0
  9 15  1  0  0  0  0
 10 16  1  0  0  0  0
 10 17  1  0  0  0  0
 10 18  1  0  0  0  0
 19 20  1  0  0  0  0
 20 21  4  0  0  0  0
 20 25  4  0  0  0  0
 21 22  4  0  0  0  0
 21 27  1  0  0  0  0
 22 23  4  0  0  0  0
 22 26  1  0  0  0  0
 23 24  4  0  0  0  0
 23 28  1  0  0  0  0
 24 25  4  0  0  0  0
 24 29  1  0  0  0  0
 25 30  1  0  0  0  0
 26 31  1  0  0  0  0
 26 32  1  0  0  0  0
M  END
> <BCLConfClusterSize>
1

> <ConfClashScore>
0 

> <ConfOneFourInteractionScore>
-0.979134 

> <ConfScore>
0.252903 

> <ConfScorePBest>
0.0025649 

> <ConfTolerance>
1.04669 

> <RosettaParamsInstructions>
M  ROOT 3
M  POLY_N_BB 3
M  POLY_CA_BB 4
M  POLY_C_BB 2
M  POLY_O_BB 5
M  POLY_IGNORE 9 10 11 12 13 14 15 16 17 18 
M  POLY_UPPER 6
M  POLY_LOWER 8
M  POLY_CHG 0
M  POLY_PROPERTIES ALPHA_AA L_AA PROTEIN AROMATIC POLYMER 
M  END

$$$$



 32 32  0  0  0  0  0  0  0  0999 V2000
    0.5524    3.4400    1.7477 H   0  0  0  1  0  0  0  0  0  0  0  0
    0.7682    1.5184    0.8941 C   0  0  0  1  0  0  0  0  0  0  0  0
    0.2514    3.5877   -0.2952 N   0  0  0  1  0  0  0  0  0  0  0  0
    0.0876    2.8751    0.9669 C   0  0  0  1  0  0  0  0  0  0  0  0
    0.4922    0.6334    1.6873 O   0  0  0  1  0  0  0  0  0  0  0  0
    1.7241    1.4135   -0.0334 N   0  0  0  1  0  0  0  0  0  0  0  0
    0.7364    4.4390   -0.2752 H   0  0  0  1  0  0  0  0  0  0  0  0
   -0.2092    3.1679   -1.4745 C   0  0  0  1  0  0  0  0  0  0  0  0
    2.3341    0.1385   -0.3803 C   0  0  0  1  0  0  0  0  0  0  0  0
    0.1520    4.0308   -2.6678 C   0  0  0  1  0  0  0  0  0  0  0  0
   -0.8854    2.1484   -1.6052 O   0  0  0  1  0  0  0  0  0  0  0  0
    2.0249    2.2232   -0.4963 H   0  0  0  1  0  0  0  0  0  0  0  0
    1.5873   -0.5197   -0.7728 H   0  0  0  1  0  0  0  0  0  0  0  0
    2.7698   -0.2978    0.4942 H   0  0  0  1  0  0  0  0  0  0  0  0
    3.0937    0.2957   -1.1174 H   0  0  0  1  0  0  0  0  0  0  0  0
    1.2008    4.2423   -2.6512 H   0  0  0  1  0  0  0  0  0  0  0  0
   -0.3973    4.9480   -2.6238 H   0  0  0  1  0  0  0  0  0  0  0  0
   -0.0925    3.5111   -3.5706 H   0  0  0  1  0  0  0  0  0  0  0  0
   -1.5924    7.5248    0.7300 F   0  0  0  1  0  0  0  0  0  0  0  0
   -2.2671    6.3635    0.8306 C   0  0  0  1  0  0  0  0  0  0  0  0
   -1.5379    5.1994    1.0164 C   0  0  0  1  0  0  0  0  0  0  0  0
   -2.1893    3.9848    1.1194 C   0  0  0  1  0  0  0  0  0  0  0  0
   -3.5723    3.9314    1.0423 C   0  0  0  1  0  0  0  0  0  0  0  0
   -4.2996    5.0921    0.8570 C   0  0  0  1  0  0  0  0  0  0  0  0
   -3.6461    6.3102    0.7537 C   0  0  0  1  0  0  0  0  0  0  0  0
   -1.3949    2.7152    1.3161 C   0  0  0  1  0  0  0  0  0  0  0  0
   -0.5006    5.2399    1.0783 H   0  0  0  1  0  0  0  0  0  0  0  0
   -4.0627    3.0180    1.1239 H   0  0  0  1  0  0  0  0  0  0  0  0
   -5.3369    5.0515    0.7952 H   0  0  0  1  0  0  0  0  0  0  0  0
   -4.1935    7.1841    0.6183 H   0  0  0  1  0  0  0  0  0  0  0  0
   -1.4733    2.4198    2.3415 H   0  0  0  1  0  0  0  0  0  0  0  0
   -1.8115    1.9526    0.6918 H   0  0  0  1  0  0  0  0  0  0  0  0
  1  4  1  0  0  0  0
  2  4  1  0  0  0  0
  2  5  2  0  0  0  0
  2  6  1  0  0  0  0
  3  4  1  0  0  0  0
  3  7  1  0  0  0  0
  3  8  1  0  0  0  0
  4 26  1  0  0  0  0
  6  9  1  0  0  0  0
  6 12  1  0  0  0  0
  8 10  1  0  0  0  0
  8 11  2  0  0  0  0
  9 13  1  0  0  0  0
  9 14  1  0  0  0  0
  9 15  1  0  0  0  0
 10 16  1  0  0  0  0
 10 17  1  0  0  0  0
 10 18  1  0  0  0  0
 19 20  1  0  0  0  0
 20 21  4  0  0  0  0
 20 25  4  0  0  0  0
 21 22  4  0  0  0  0
 21 27  1  0  0  0  0
 22 23  4  0  0  0  0
 22 26  1  0  0  0  0
 23 24  4  0  0  0  0
 23 28  1  0  0  0  0
 24 25  4  0  0  0  0
 24 29  1  0  0  0  0
 25 30  1  0  0  0  0
 26 31  1  0  0  0  0
 26 32  1  0  0  0  0
M  END
> <BCLConfClusterSize>
1

> <ConfClashScore>
0 

> <ConfOneFourInteractionScore>
-0.918095 

> <ConfScore>
0.259918 

> <ConfScorePBest>
0.00253641 

> <ConfTolerance>
1.06533 

> <RosettaParamsInstructions>
M  ROOT 3
M  POLY_N_BB 3
M  POLY_CA_BB 4
M  POLY_C_BB 2
M  POLY_O_BB 5
M  POLY_IGNORE 9 10 11 12 13 14 15 16 17 18 
M  POLY_UPPER 6
M  POLY_LOWER 8
M  POLY_CHG 0
M  POLY_PROPERTIES ALPHA_AA L_AA PROTEIN AROMATIC POLYMER 
M  END

$$$$



 32 32  0  0  0  0  0  0  0  0999 V2000
   -1.1020    1.9499   -0.6307 H   0  0  0  1  0  0  0  0  0  0  0  0
   -1.0055    0.3145    0.7148 C   0  0  0  1  0  0  0  0  0  0  0  0
   -3.0233    1.4767   -0.0319 N   0  0  0  1  0  0  0  0  0  0  0  0
   -1.6086    1.6429    0.2604 C   0  0  0  1  0  0  0  0  0  0  0  0
   -0.0595    0.3079    1.5005 O   0  0  0  1  0  0  0  0  0  0  0  0
   -1.6095   -0.7993    0.2869 N   0  0  0  1  0  0  0  0  0  0  0  0
   -3.6700    1.4133    0.7017 H   0  0  0  1  0  0  0  0  0  0  0  0
   -3.4433    1.4103   -1.2985 C   0  0  0  1  0  0  0  0  0  0  0  0
   -1.1358   -2.1276    0.6461 C   0  0  0  1  0  0  0  0  0  0  0  0
   -4.9339    1.2065   -1.4883 C   0  0  0  1  0  0  0  0  0  0  0  0
   -2.6906    1.5053   -2.2538 O   0  0  0  1  0  0  0  0  0  0  0  0
   -2.3986   -0.7181   -0.2887 H   0  0  0  1  0  0  0  0  0  0  0  0
   -0.0668   -2.1257    0.6904 H   0  0  0  1  0  0  0  0  0  0  0  0
   -1.4608   -2.8330   -0.0899 H   0  0  0  1  0  0  0  0  0  0  0  0
   -1.5317   -2.4007    1.6019 H   0  0  0  1  0  0  0  0  0  0  0  0
   -5.1054    0.6244   -2.3696 H   0  0  0  1  0  0  0  0  0  0  0  0
   -5.4134    2.1576   -1.5904 H   0  0  0  1  0  0  0  0  0  0  0  0
   -5.3346    0.6938   -0.6389 H   0  0  0  1  0  0  0  0  0  0  0  0
   -1.5924    7.5248    0.7300 F   0  0  0  1  0  0  0  0  0  0  0  0
   -2.2671    6.3635    0.8306 C   0  0  0  1  0  0  0  0  0  0  0  0
   -1.5379    5.1994    1.0164 C   0  0  0  1  0  0  0  0  0  0  0  0
   -2.1893    3.9848    1.1194 C   0  0  0  1  0  0  0  0  0  0  0  0
   -3.5723    3.9314    1.0423 C   0  0  0  1  0  0  0  0  0  0  0  0
   -4.2996    5.0921    0.8570 C   0  0  0  1  0  0  0  0  0  0  0  0
   -3.6461    6.3102    0.7537 C   0  0  0  1  0  0  0  0  0  0  0  0
   -1.3949    2.7152    1.3161 C   0  0  0  1  0  0  0  0  0  0  0  0
   -0.5006    5.2399    1.0783 H   0  0  0  1  0  0  0  0  0  0  0  0
   -4.0627    3.0180    1.1239 H   0  0  0  1  0  0  0  0  0  0  0  0
   -5.3369    5.0515    0.7952 H   0  0  0  1  0  0  0  0  0  0  0  0
   -4.1935    7.1841    0.6183 H   0  0  0  1  0  0  0  0  0  0  0  0
   -0.3564    2.9729    1.3194 H   0  0  0  1  0  0  0  0  0  0  0  0
   -1.6633    2.3017    2.2657 H   0  0  0  1  0  0  0  0  0  0  0  0
  1  4  1  0  0  0  0
  2  4  1  0  0  0  0
  2  5  2  0  0  0  0
  2  6  1  0  0  0  0
  3  4  1  0  0  0  0
  3  7  1  0  0  0  0
  3  8  1  0  0  0  0
  4 26  1  0  0  0  0
  6  9  1  0  0  0  0
  6 12  1  0  0  0  0
  8 10  1  0  0  0  0
  8 11  2  0  0  0  0
  9 13  1  0  0  0  0
  9 14  1  0  0  0  0
  9 15  1  0  0  0  0
 10 16  1  0  0  0  0
 10 17  1  0  0  0  0
 10 18  1  0  0  0  0
 19 20  1  0  0  0  0
 20 21  4  0  0  0  0
 20 25  4  0  0  0  0
 21 22  4  0  0  0  0
 21 27  1  0  0  0  0
 22 23  4  0  0  0  0
 22 26  1  0  0  0  0
 23 24  4  0  0  0  0
 23 28  1  0  0  0  0
 24 25  4  0  0  0  0
 24 29  1  0  0  0  0
 25 30  1  0  0  0  0
 26 31  1  0  0  0  0
 26 32  1  0  0  0  0
M  END
> <BCLConfClusterSize>
1

> <ConfClashScore>
0 

> <ConfOneFourInteractionScore>
-0.927774 

> <ConfScore>
0.275973 

> <ConfScorePBest>
0.00250793 

> <ConfTolerance>
1.11684 

> <RosettaParamsInstructions>
M  ROOT 3
M  POLY_N_BB 3
M  POLY_CA_BB 4
M  POLY_C_BB 2
M  POLY_O_BB 5
M  POLY_IGNORE 9 10 11 12 13 14 15 16 17 18 
M  POLY_UPPER 6
M  POLY_LOWER 8
M  POLY_CHG 0
M  POLY_PROPERTIES ALPHA_AA L_AA PROTEIN AROMATIC POLYMER 
M  END

$$$$



 32 32  0  0  0  0  0  0  0  0999 V2000
   -1.3941    2.1294   -0.7189 H   0  0  0  1  0  0  0  0  0  0  0  0
    0.3205    3.3406   -0.4234 C   0  0  0  1  0  0  0  0  0  0  0  0
    0.0910    1.0504    0.2524 N   0  0  0  1  0  0  0  0  0  0  0  0
   -0.6581    2.2804    0.0430 C   0  0  0  1  0  0  0  0  0  0  0  0
    0.0038    4.1724   -1.2716 O   0  0  0  1  0  0  0  0  0  0  0  0
    1.5351    3.3046    0.1473 N   0  0  0  1  0  0  0  0  0  0  0  0
    1.0594    1.1045    0.3927 H   0  0  0  1  0  0  0  0  0  0  0  0
   -0.4982   -0.1550    0.2603 C   0  0  0  1  0  0  0  0  0  0  0  0
    2.5812    4.2582   -0.1905 C   0  0  0  1  0  0  0  0  0  0  0  0
    0.4837   -1.3157    0.3555 C   0  0  0  1  0  0  0  0  0  0  0  0
   -1.7106   -0.3409    0.1980 O   0  0  0  1  0  0  0  0  0  0  0  0
    1.7238    2.6121    0.8146 H   0  0  0  1  0  0  0  0  0  0  0  0
    3.5197    3.7490   -0.2602 H   0  0  0  1  0  0  0  0  0  0  0  0
    2.6386    5.0086    0.5701 H   0  0  0  1  0  0  0  0  0  0  0  0
    2.3546    4.7181   -1.1296 H   0  0  0  1  0  0  0  0  0  0  0  0
    1.1542   -1.2857   -0.4778 H   0  0  0  1  0  0  0  0  0  0  0  0
   -0.0551   -2.2401    0.3462 H   0  0  0  1  0  0  0  0  0  0  0  0
    1.0418   -1.2368    1.2650 H   0  0  0  1  0  0  0  0  0  0  0  0
   -1.6190    7.5350    0.7271 F   0  0  0  1  0  0  0  0  0  0  0  0
   -2.2609    6.3557    0.8319 C   0  0  0  1  0  0  0  0  0  0  0  0
   -1.5384    5.1873    1.0178 C   0  0  0  1  0  0  0  0  0  0  0  0
   -2.1967    3.9764    1.1200 C   0  0  0  1  0  0  0  0  0  0  0  0
   -3.5799    3.9309    1.0419 C   0  0  0  1  0  0  0  0  0  0  0  0
   -4.3005    5.0957    0.8565 C   0  0  0  1  0  0  0  0  0  0  0  0
   -3.6401    6.3101    0.7541 C   0  0  0  1  0  0  0  0  0  0  0  0
   -1.3608    2.7337    1.3160 C   0  0  0  1  0  0  0  0  0  0  0  0
   -0.5009    5.2220    1.0804 H   0  0  0  1  0  0  0  0  0  0  0  0
   -4.0756    3.0202    1.1228 H   0  0  0  1  0  0  0  0  0  0  0  0
   -5.3380    5.0610    0.7940 H   0  0  0  1  0  0  0  0  0  0  0  0
   -4.1824    7.1871    0.6186 H   0  0  0  1  0  0  0  0  0  0  0  0
   -0.6196    2.9357    2.0607 H   0  0  0  1  0  0  0  0  0  0  0  0
   -1.9991    1.9435    1.6524 H   0  0  0  1  0  0  0  0  0  0  0  0
  1  4  1  0  0  0  0
  2  4  1  0  0  0  0
  2  5  2  0  0  0  0
  2  6  1  0  0  0  0
  3  4  1  0  0  0  0
  3  7  1  0  0  0  0
  3  8  1  0  0  0  0
  4 26  1  0  0  0  0
  6  9  1  0  0  0  0
  6 12  1  0  0  0  0
  8 10  1  0  0  0  0
  8 11  2  0  0  0  0
  9 13  1  0  0  0  0
  9 14  1  0  0  0  0
  9 15  1  0  0  0  0
 10 16  1  0  0  0  0
 10 17  1  0  0  0  0
 10 18  1  0  0  0  0
 19 20  1  0  0  0  0
 20 21  4  0  0  0  0
 20 25  4  0  0  0  0
 21 22  4  0  0  0  0
 21 27  1  0  0  0  0
 22 23  4  0  0  0  0
 22 26  1  0  0  0  0
 23 24  4  0  0  0  0
 23 28  1  0  0  0  0
 24 25  4  0  0  0  0
 24 29  1  0  0  0  0
 25 30  1  0  0  0  0
 26 31  1  0  0  0  0
 26 32  1  0  0  0  0
M  END
> <BCLConfClusterSize>
1

> <ConfClashScore>
0 

> <ConfOneFourInteractionScore>
-0.965014 

> <ConfScore>
0.28644 

> <ConfScorePBest>
0.00247945 

> <ConfTolerance>
1.08296 

> <RosettaParamsInstructions>
M  ROOT 3
M  POLY_N_BB 3
M  POLY_CA_BB 4
M  POLY_C_BB 2
M  POLY_O_BB 5
M  POLY_IGNORE 9 10 11 12 13 14 15 16 17 18 
M  POLY_UPPER 6
M  POLY_LOWER 8
M  POLY_CHG 0
M  POLY_PROPERTIES ALPHA_AA L_AA PROTEIN AROMATIC POLYMER 
M  END

$$$$



 32 32  0  0  0  0  0  0  0  0999 V2000
   -0.6720    1.3828    2.7994 H   0  0  0  1  0  0  0  0  0  0  0  0
    0.0593    3.3281    3.2542 C   0  0  0  1  0  0  0  0  0  0  0  0
   -2.1823    2.5362    3.6443 N   0  0  0  1  0  0  0  0  0  0  0  0
   -1.0348    2.3885    2.7561 C   0  0  0  1  0  0  0  0  0  0  0  0
    0.0752    4.5061    2.8994 O   0  0  0  1  0  0  0  0  0  0  0  0
    1.0255    2.7934    4.0025 N   0  0  0  1  0  0  0  0  0  0  0  0
   -2.9479    3.0688    3.3432 H   0  0  0  1  0  0  0  0  0  0  0  0
   -2.2259    1.9727    4.8498 C   0  0  0  1  0  0  0  0  0  0  0  0
    2.1415    3.5786    4.5083 C   0  0  0  1  0  0  0  0  0  0  0  0
   -3.3591    2.4079    5.7828 C   0  0  0  1  0  0  0  0  0  0  0  0
   -1.3583    1.1995    5.2470 O   0  0  0  1  0  0  0  0  0  0  0  0
    0.9824    1.8387    4.2190 H   0  0  0  1  0  0  0  0  0  0  0  0
    1.8336    4.5952    4.6372 H   0  0  0  1  0  0  0  0  0  0  0  0
    2.9517    3.5373    3.8105 H   0  0  0  1  0  0  0  0  0  0  0  0
    2.4598    3.1807    5.4492 H   0  0  0  1  0  0  0  0  0  0  0  0
   -3.2865    3.4595    5.9666 H   0  0  0  1  0  0  0  0  0  0  0  0
   -3.2815    1.8780    6.7092 H   0  0  0  1  0  0  0  0  0  0  0  0
   -4.3013    2.1904    5.3248 H   0  0  0  1  0  0  0  0  0  0  0  0
   -1.5924    7.5248    0.7300 F   0  0  0  1  0  0  0  0  0  0  0  0
   -2.2671    6.3635    0.8306 C   0  0  0  1  0  0  0  0  0  0  0  0
   -1.5379    5.1994    1.0164 C   0  0  0  1  0  0  0  0  0  0  0  0
   -2.1893    3.9848    1.1194 C   0  0  0  1  0  0  0  0  0  0  0  0
   -3.5723    3.9314    1.0423 C   0  0  0  1  0  0  0  0  0  0  0  0
   -4.2996    5.0921    0.8570 C   0  0  0  1  0  0  0  0  0  0  0  0
   -3.6461    6.3102    0.7537 C   0  0  0  1  0  0  0  0  0  0  0  0
   -1.3949    2.7152    1.3161 C   0  0  0  1  0  0  0  0  0  0  0  0
   -0.5006    5.2399    1.0783 H   0  0  0  1  0  0  0  0  0  0  0  0
   -4.0627    3.0180    1.1239 H   0  0  0  1  0  0  0  0  0  0  0  0
   -5.3369    5.0515    0.7952 H   0  0  0  1  0  0  0  0  0  0  0  0
   -4.1935    7.1841    0.6183 H   0  0  0  1  0  0  0  0  0  0  0  0
   -1.9710    1.9018    0.9272 H   0  0  0  1  0  0  0  0  0  0  0  0
   -0.4848    2.8060    0.7607 H   0  0  0  1  0  0  0  0  0  0  0  0
  1  4  1  0  0  0  0
  2  4  1  0  0  0  0
  2  5  2  0  0  0  0
  2  6  1  0  0  0  0
  3  4  1  0  0  0  0
  3  7  1  0  0  0  0
  3  8  1  0  0  0  0
  4 26  1  0  0  0  0
  6  9  1  0  0  0  0
  6 12  1  0  0  0  0
  8 10  1  0  0  0  0
  8 11  2  0  0  0  0
  9 13  1  0  0  0  0
  9 14  1  0  0  0  0
  9 15  1  0  0  0  0
 10 16  1  0  0  0  0
 10 17  1  0  0  0  0
 10 18  1  0  0  0  0
 19 20  1  0  0  0  0
 20 21  4  0  0  0  0
 20 25  4  0  0  0  0
 21 22  4  0  0  0  0
 21 27  1  0  0  0  0
 22 23  4  0  0  0  0
 22 26  1  0  0  0  0
 23 24  4  0  0  0  0
 23 28  1  0  0  0  0
 24 25  4  0  0  0  0
 24 29  1  0  0  0  0
 25 30  1  0  0  0  0
 26 31  1  0  0  0  0
 26 32  1  0  0  0  0
M  END
> <BCLConfClusterSize>
1

> <ConfClashScore>
0 

> <ConfOneFourInteractionScore>
-0.969421 

> <ConfScore>
0.301544 

> <ConfScorePBest>
0.00245097 

> <ConfTolerance>
1.12262 

> <RosettaParamsInstructions>
M  ROOT 3
M  POLY_N_BB 3
M  POLY_CA_BB 4
M  POLY_C_BB 2
M  POLY_O_BB 5
M  POLY_IGNORE 9 10 11 12 13 14 15 16 17 18 
M  POLY_UPPER 6
M  POLY_LOWER 8
M  POLY_CHG 0
M  POLY_PROPERTIES ALPHA_AA L_AA PROTEIN AROMATIC POLYMER 
M  END

$$$$



 32 32  0  0  0  0  0  0  0  0999 V2000
   -0.8935    1.3176    2.8296 H   0  0  0  1  0  0  0  0  0  0  0  0
   -0.1092    3.1909    3.3918 C   0  0  0  1  0  0  0  0  0  0  0  0
   -2.4707    2.4447    3.5193 N   0  0  0  1  0  0  0  0  0  0  0  0
   -1.2178    2.3364    2.7870 C   0  0  0  1  0  0  0  0  0  0  0  0
    0.8990    3.4780    2.7477 O   0  0  0  1  0  0  0  0  0  0  0  0
   -0.3106    3.5991    4.6547 N   0  0  0  1  0  0  0  0  0  0  0  0
   -2.9237    1.6241    3.8056 H   0  0  0  1  0  0  0  0  0  0  0  0
   -3.0250    3.6238    3.8148 C   0  0  0  1  0  0  0  0  0  0  0  0
    0.6424    4.4427    5.3604 C   0  0  0  1  0  0  0  0  0  0  0  0
   -4.4470    3.6041    4.3763 C   0  0  0  1  0  0  0  0  0  0  0  0
   -2.4671    4.6933    3.5752 O   0  0  0  1  0  0  0  0  0  0  0  0
   -1.1279    3.3193    5.1175 H   0  0  0  1  0  0  0  0  0  0  0  0
    1.1061    5.1141    4.6682 H   0  0  0  1  0  0  0  0  0  0  0  0
    1.3905    3.8297    5.8179 H   0  0  0  1  0  0  0  0  0  0  0  0
    0.1312    5.0046    6.1139 H   0  0  0  1  0  0  0  0  0  0  0  0
   -4.9502    4.5091    4.1065 H   0  0  0  1  0  0  0  0  0  0  0  0
   -4.4082    3.5220    5.4424 H   0  0  0  1  0  0  0  0  0  0  0  0
   -4.9779    2.7673    3.9728 H   0  0  0  1  0  0  0  0  0  0  0  0
   -1.6578    7.5643    0.7212 F   0  0  0  1  0  0  0  0  0  0  0  0
   -2.2544    6.3619    0.8315 C   0  0  0  1  0  0  0  0  0  0  0  0
   -1.5268    5.1967    1.0174 C   0  0  0  1  0  0  0  0  0  0  0  0
   -2.1798    3.9830    1.1202 C   0  0  0  1  0  0  0  0  0  0  0  0
   -3.5628    3.9315    1.0429 C   0  0  0  1  0  0  0  0  0  0  0  0
   -4.2885    5.0931    0.8576 C   0  0  0  1  0  0  0  0  0  0  0  0
   -3.6334    6.3104    0.7545 C   0  0  0  1  0  0  0  0  0  0  0  0
   -1.4405    2.6806    1.3174 C   0  0  0  1  0  0  0  0  0  0  0  0
   -0.4894    5.2359    1.0794 H   0  0  0  1  0  0  0  0  0  0  0  0
   -4.0545    3.0187    1.1243 H   0  0  0  1  0  0  0  0  0  0  0  0
   -5.3259    5.0539    0.7956 H   0  0  0  1  0  0  0  0  0  0  0  0
   -4.1796    7.1850    0.6191 H   0  0  0  1  0  0  0  0  0  0  0  0
   -2.0090    1.8946    0.8658 H   0  0  0  1  0  0  0  0  0  0  0  0
   -0.4875    2.7538    0.8365 H   0  0  0  1  0  0  0  0  0  0  0  0
  1  4  1  0  0  0  0
  2  4  1  0  0  0  0
  2  5  2  0  0  0  0
  2  6  1  0  0  0  0
  3  4  1  0  0  0  0
  3  7  1  0  0  0  0
  3  8  1  0  0  0  0
  4 26  1  0  0  0  0
  6  9  1  0  0  0  0
  6 12  1  0  0  0  0
  8 10  1  0  0  0  0
  8 11  2  0  0  0  0
  9 13  1  0  0  0  0
  9 14  1  0  0  0  0
  9 15  1  0  0  0  0
 10 16  1  0  0  0  0
 10 17  1  0  0  0  0
 10 18  1  0  0  0  0
 19 20  1  0  0  0  0
 20 21  4  0  0  0  0
 20 25  4  0  0  0  0
 21 22  4  0  0  0  0
 21 27  1  0  0  0  0
 22 23  4  0  0  0  0
 22 26  1  0  0  0  0
 23 24  4  0  0  0  0
 23 28  1  0  0  0  0
 24 25  4  0  0  0  0
 24 29  1  0  0  0  0
 25 30  1  0  0  0  0
 26 31  1  0  0  0  0
 26 32  1  0  0  0  0
M  END
> <BCLConfClusterSize>
1

> <ConfClashScore>
0 

> <ConfOneFourInteractionScore>
-0.929341 

> <ConfScore>
0.319954 

> <ConfScorePBest>
0.00242249 

> <ConfTolerance>
1.42004 

> <RosettaParamsInstructions>
M  ROOT 3
M  POLY_N_BB 3
M  POLY_CA_BB 4
M  POLY_C_BB 2
M  POLY_O_BB 5
M  POLY_IGNORE 9 10 11 12 13 14 15 16 17 18 
M  POLY_UPPER 6
M  POLY_LOWER 8
M  POLY_CHG 0
M  POLY_PROPERTIES ALPHA_AA L_AA PROTEIN AROMATIC POLYMER 
M  END

$$$$



 32 32  0  0  0  0  0  0  0  0999 V2000
   -0.3597    1.2222    0.1937 H   0  0  0  1  0  0  0  0  0  0  0  0
   -2.3535    1.3736   -0.5539 C   0  0  0  1  0  0  0  0  0  0  0  0
   -0.5294    2.9768   -0.9148 N   0  0  0  1  0  0  0  0  0  0  0  0
   -1.0759    1.9954    0.0086 C   0  0  0  1  0  0  0  0  0  0  0  0
   -3.4296    1.9402   -0.5834 O   0  0  0  1  0  0  0  0  0  0  0  0
   -2.2371    0.1314   -1.0319 N   0  0  0  1  0  0  0  0  0  0  0  0
   -1.1163    3.3599   -1.5997 H   0  0  0  1  0  0  0  0  0  0  0  0
    0.7576    3.3782   -0.8615 C   0  0  0  1  0  0  0  0  0  0  0  0
   -3.3633   -0.5890   -1.6068 C   0  0  0  1  0  0  0  0  0  0  0  0
    1.2631    4.2987   -1.9552 C   0  0  0  1  0  0  0  0  0  0  0  0
    1.5012    3.0097    0.0468 O   0  0  0  1  0  0  0  0  0  0  0  0
   -1.3629   -0.3099   -0.9941 H   0  0  0  1  0  0  0  0  0  0  0  0
   -4.1144    0.1086   -1.9136 H   0  0  0  1  0  0  0  0  0  0  0  0
   -3.7721   -1.2540   -0.8750 H   0  0  0  1  0  0  0  0  0  0  0  0
   -3.0315   -1.1512   -2.4546 H   0  0  0  1  0  0  0  0  0  0  0  0
    1.5972    3.7149   -2.7873 H   0  0  0  1  0  0  0  0  0  0  0  0
    2.0769    4.8839   -1.5807 H   0  0  0  1  0  0  0  0  0  0  0  0
    0.4719    4.9470   -2.2694 H   0  0  0  1  0  0  0  0  0  0  0  0
   -1.6537    7.5575    0.7223 F   0  0  0  1  0  0  0  0  0  0  0  0
   -2.2545    6.3571    0.8321 C   0  0  0  1  0  0  0  0  0  0  0  0
   -1.5311    5.1894    1.0180 C   0  0  0  1  0  0  0  0  0  0  0  0
   -2.1883    3.9779    1.1203 C   0  0  0  1  0  0  0  0  0  0  0  0
   -3.5715    3.9312    1.0424 C   0  0  0  1  0  0  0  0  0  0  0  0
   -4.2931    5.0954    0.8571 C   0  0  0  1  0  0  0  0  0  0  0  0
   -3.6337    6.3104    0.7545 C   0  0  0  1  0  0  0  0  0  0  0  0
   -1.4001    2.7045    1.3170 C   0  0  0  1  0  0  0  0  0  0  0  0
   -0.4935    5.2249    1.0805 H   0  0  0  1  0  0  0  0  0  0  0  0
   -4.0664    3.0201    1.1234 H   0  0  0  1  0  0  0  0  0  0  0  0
   -5.3306    5.0598    0.7946 H   0  0  0  1  0  0  0  0  0  0  0  0
   -4.1768    7.1869    0.6190 H   0  0  0  1  0  0  0  0  0  0  0  0
   -0.4818    2.9452    1.8106 H   0  0  0  1  0  0  0  0  0  0  0  0
   -1.9726    2.0411    1.9311 H   0  0  0  1  0  0  0  0  0  0  0  0
  1  4  1  0  0  0  0
  2  4  1  0  0  0  0
  2  5  2  0  0  0  0
  2  6  1  0  0  0  0
  3  4  1  0  0  0  0
  3  7  1  0  0  0  0
  3  8  1  0  0  0  0
  4 26  1  0  0  0  0
  6  9  1  0  0  0  0
  6 12  1  0  0  0  0
  8 10  1  0  0  0  0
  8 11  2  0  0  0  0
  9 13  1  0  0  0  0
  9 14  1  0  0  0  0
  9 15  1  0  0  0  0
 10 16  1  0  0  0  0
 10 17  1  0  0  0  0
 10 18  1  0  0  0  0
 19 20  1  0  0  0  0
 20 21  4  0  0  0  0
 20 25  4  0  0  0  0
 21 22  4  0  0  0  0
 21 27  1  0  0  0  0
 22 23  4  0  0  0  0
 22 26  1  0  0  0  0
 23 24  4  0  0  0  0
 23 28  1  0  0  0  0
 24 25  4  0  0  0  0
 24 29  1  0  0  0  0
 25 30  1  0  0  0  0
 26 31  1  0  0  0  0
 26 32  1  0  0  0  0
M  END
> <BCLConfClusterSize>
1

> <ConfClashScore>
0 

> <ConfOneFourInteractionScore>
-0.97007 

> <ConfScore>
0.327072 

> <ConfScorePBest>
0.00239401 

> <ConfTolerance>
0.997664 

> <RosettaParamsInstructions>
M  ROOT 3
M  POLY_N_BB 3
M  POLY_CA_BB 4
M  POLY_C_BB 2
M  POLY_O_BB 5
M  POLY_IGNORE 9 10 11 12 13 14 15 16 17 18 
M  POLY_UPPER 6
M  POLY_LOWER 8
M  POLY_CHG 0
M  POLY_PROPERTIES ALPHA_AA L_AA PROTEIN AROMATIC POLYMER 
M  END

$$$$



 32 32  0  0  0  0  0  0  0  0999 V2000
   -2.2496    1.5663   -0.2812 H   0  0  0  1  0  0  0  0  0  0  0  0
   -0.5986    2.6588   -1.0195 C   0  0  0  1  0  0  0  0  0  0  0  0
   -0.5482    0.6155    0.4013 N   0  0  0  1  0  0  0  0  0  0  0  0
   -1.2732    1.8321    0.0664 C   0  0  0  1  0  0  0  0  0  0  0  0
   -0.7416    3.8650   -1.1035 O   0  0  0  1  0  0  0  0  0  0  0  0
    0.1792    2.0437   -1.9149 N   0  0  0  1  0  0  0  0  0  0  0  0
   -0.9878   -0.2497    0.2650 H   0  0  0  1  0  0  0  0  0  0  0  0
    0.6957    0.6371    0.8883 C   0  0  0  1  0  0  0  0  0  0  0  0
    0.9230    2.7741   -2.9304 C   0  0  0  1  0  0  0  0  0  0  0  0
    1.2263   -0.7119    1.3683 C   0  0  0  1  0  0  0  0  0  0  0  0
    1.3603    1.6637    1.0226 O   0  0  0  1  0  0  0  0  0  0  0  0
    0.2514    1.0668   -1.8868 H   0  0  0  1  0  0  0  0  0  0  0  0
    1.7588    3.2648   -2.4771 H   0  0  0  1  0  0  0  0  0  0  0  0
    0.2848    3.5032   -3.3842 H   0  0  0  1  0  0  0  0  0  0  0  0
    1.2722    2.0912   -3.6765 H   0  0  0  1  0  0  0  0  0  0  0  0
    0.7065   -1.0046    2.2565 H   0  0  0  1  0  0  0  0  0  0  0  0
    2.2723   -0.6292    1.5783 H   0  0  0  1  0  0  0  0  0  0  0  0
    1.0721   -1.4472    0.6064 H   0  0  0  1  0  0  0  0  0  0  0  0
   -1.6268    7.5487    0.7250 F   0  0  0  1  0  0  0  0  0  0  0  0
   -2.2607    6.3650    0.8308 C   0  0  0  1  0  0  0  0  0  0  0  0
   -1.5303    5.2017    1.0166 C   0  0  0  1  0  0  0  0  0  0  0  0
   -2.1803    3.9864    1.1198 C   0  0  0  1  0  0  0  0  0  0  0  0
   -3.5633    3.9316    1.0429 C   0  0  0  1  0  0  0  0  0  0  0  0
   -4.2918    5.0914    0.8576 C   0  0  0  1  0  0  0  0  0  0  0  0
   -3.6396    6.3102    0.7541 C   0  0  0  1  0  0  0  0  0  0  0  0
   -1.4379    2.6859    1.3169 C   0  0  0  1  0  0  0  0  0  0  0  0
   -0.4929    5.2433    1.0783 H   0  0  0  1  0  0  0  0  0  0  0  0
   -4.0527    3.0176    1.1246 H   0  0  0  1  0  0  0  0  0  0  0  0
   -5.3291    5.0497    0.7959 H   0  0  0  1  0  0  0  0  0  0  0  0
   -4.1880    7.1835    0.6187 H   0  0  0  1  0  0  0  0  0  0  0  0
   -0.4619    2.9163    1.6902 H   0  0  0  1  0  0  0  0  0  0  0  0
   -1.9708    2.1083    2.0431 H   0  0  0  1  0  0  0  0  0  0  0  0
  1  4  1  0  0  0  0
  2  4  1  0  0  0  0
  2  5  2  0  0  0  0
  2  6  1  0  0  0  0
  3  4  1  0  0  0  0
  3  7  1  0  0  0  0
  3  8  1  0  0  0  0
  4 26  1  0  0  0  0
  6  9  1  0  0  0  0
  6 12  1  0  0  0  0
  8 10  1  0  0  0  0
  8 11  2  0  0  0  0
  9 13  1  0  0  0  0
  9 14  1  0  0  0  0
  9 15  1  0  0  0  0
 10 16  1  0  0  0  0
 10 17  1  0  0  0  0
 10 18  1  0  0  0  0
 19 20  1  0  0  0  0
 20 21  4  0  0  0  0
 20 25  4  0  0  0  0
 21 22  4  0  0  0  0
 21 27  1  0  0  0  0
 22 23  4  0  0  0  0
 22 26  1  0  0  0  0
 23 24  4  0  0  0  0
 23 28  1  0  0  0  0
 24 25  4  0  0  0  0
 24 29  1  0  0  0  0
 25 30  1  0  0  0  0
 26 31  1  0  0  0  0
 26 32  1  0  0  0  0
M  END
> <BCLConfClusterSize>
1

> <ConfClashScore>
0 

> <ConfOneFourInteractionScore>
-0.956972 

> <ConfScore>
0.337909 

> <ConfScorePBest>
0.00236553 

> <ConfTolerance>
0.834455 

> <RosettaParamsInstructions>
M  ROOT 3
M  POLY_N_BB 3
M  POLY_CA_BB 4
M  POLY_C_BB 2
M  POLY_O_BB 5
M  POLY_IGNORE 9 10 11 12 13 14 15 16 17 18 
M  POLY_UPPER 6
M  POLY_LOWER 8
M  POLY_CHG 0
M  POLY_PROPERTIES ALPHA_AA L_AA PROTEIN AROMATIC POLYMER 
M  END

$$$$



 32 32  0  0  0  0  0  0  0  0999 V2000
   -0.3741    3.2888    3.0806 H   0  0  0  1  0  0  0  0  0  0  0  0
   -2.1586    2.2747    3.6340 C   0  0  0  1  0  0  0  0  0  0  0  0
   -0.0996    1.2529    2.7779 N   0  0  0  1  0  0  0  0  0  0  0  0
   -0.9351    2.4438    2.7398 C   0  0  0  1  0  0  0  0  0  0  0  0
   -3.2691    2.6400    3.2577 O   0  0  0  1  0  0  0  0  0  0  0  0
   -1.9849    1.7157    4.8421 N   0  0  0  1  0  0  0  0  0  0  0  0
    0.8598    1.3773    2.9347 H   0  0  0  1  0  0  0  0  0  0  0  0
   -0.5462   -0.0096    2.6136 C   0  0  0  1  0  0  0  0  0  0  0  0
   -3.0473    1.4645    5.8044 C   0  0  0  1  0  0  0  0  0  0  0  0
    0.4792   -1.1239    2.5347 C   0  0  0  1  0  0  0  0  0  0  0  0
   -1.7473   -0.2518    2.5300 O   0  0  0  1  0  0  0  0  0  0  0  0
   -1.0741    1.4574    5.0951 H   0  0  0  1  0  0  0  0  0  0  0  0
   -3.6042    2.3641    5.9646 H   0  0  0  1  0  0  0  0  0  0  0  0
   -2.6203    1.1400    6.7302 H   0  0  0  1  0  0  0  0  0  0  0  0
   -3.6988    0.7048    5.4258 H   0  0  0  1  0  0  0  0  0  0  0  0
    1.0510   -1.1477    3.4388 H   0  0  0  1  0  0  0  0  0  0  0  0
    1.1317   -0.9497    1.7048 H   0  0  0  1  0  0  0  0  0  0  0  0
   -0.0216   -2.0605    2.4050 H   0  0  0  1  0  0  0  0  0  0  0  0
   -1.6228    7.5417    0.7261 F   0  0  0  1  0  0  0  0  0  0  0  0
   -2.2608    6.3603    0.8314 C   0  0  0  1  0  0  0  0  0  0  0  0
   -1.5345    5.1943    1.0172 C   0  0  0  1  0  0  0  0  0  0  0  0
   -2.1888    3.9813    1.1199 C   0  0  0  1  0  0  0  0  0  0  0  0
   -3.5719    3.9313    1.0424 C   0  0  0  1  0  0  0  0  0  0  0  0
   -4.2963    5.0937    0.8570 C   0  0  0  1  0  0  0  0  0  0  0  0
   -3.6399    6.3103    0.7541 C   0  0  0  1  0  0  0  0  0  0  0  0
   -1.3975    2.7098    1.3166 C   0  0  0  1  0  0  0  0  0  0  0  0
   -0.4971    5.2324    1.0794 H   0  0  0  1  0  0  0  0  0  0  0  0
   -4.0646    3.0190    1.1236 H   0  0  0  1  0  0  0  0  0  0  0  0
   -5.3338    5.0556    0.7949 H   0  0  0  1  0  0  0  0  0  0  0  0
   -4.1852    7.1855    0.6187 H   0  0  0  1  0  0  0  0  0  0  0  0
   -2.0109    1.8885    1.0098 H   0  0  0  1  0  0  0  0  0  0  0  0
   -0.5303    2.7608    0.6918 H   0  0  0  1  0  0  0  0  0  0  0  0
  1  4  1  0  0  0  0
  2  4  1  0  0  0  0
  2  5  2  0  0  0  0
  2  6  1  0  0  0  0
  3  4  1  0  0  0  0
  3  7  1  0  0  0  0
  3  8  1  0  0  0  0
  4 26  1  0  0  0  0
  6  9  1  0  0  0  0
  6 12  1  0  0  0  0
  8 10  1  0  0  0  0
  8 11  2  0  0  0  0
  9 13  1  0  0  0  0
  9 14  1  0  0  0  0
  9 15  1  0  0  0  0
 10 16  1  0  0  0  0
 10 17  1  0  0  0  0
 10 18  1  0  0  0  0
 19 20  1  0  0  0  0
 20 21  4  0  0  0  0
 20 25  4  0  0  0  0
 21 22  4  0  0  0  0
 21 27  1  0  0  0  0
 22 23  4  0  0  0  0
 22 26  1  0  0  0  0
 23 24  4  0  0  0  0
 23 28  1  0  0  0  0
 24 25  4  0  0  0  0
 24 29  1  0  0  0  0
 25 30  1  0  0  0  0
 26 31  1  0  0  0  0
 26 32  1  0  0  0  0
M  END
> <BCLConfClusterSize>
1

> <ConfClashScore>
0 

> <ConfOneFourInteractionScore>
-0.957364 

> <ConfScore>
0.344908 

> <ConfScorePBest>
0.00233705 

> <ConfTolerance>
0.78224 

> <RosettaParamsInstructions>
M  ROOT 3
M  POLY_N_BB 3
M  POLY_CA_BB 4
M  POLY_C_BB 2
M  POLY_O_BB 5
M  POLY_IGNORE 9 10 11 12 13 14 15 16 17 18 
M  POLY_UPPER 6
M  POLY_LOWER 8
M  POLY_CHG 0
M  POLY_PROPERTIES ALPHA_AA L_AA PROTEIN AROMATIC POLYMER 
M  END

$$$$



 32 32  0  0  0  0  0  0  0  0999 V2000
   -0.2908    2.5249   -0.4810 H   0  0  0  1  0  0  0  0  0  0  0  0
   -0.3341    0.6331    0.5003 C   0  0  0  1  0  0  0  0  0  0  0  0
   -2.1883    1.6900   -0.7123 N   0  0  0  1  0  0  0  0  0  0  0  0
   -0.9904    1.9421    0.0809 C   0  0  0  1  0  0  0  0  0  0  0  0
   -0.6885    0.0409    1.5064 O   0  0  0  1  0  0  0  0  0  0  0  0
    0.6445    0.1876   -0.3035 N   0  0  0  1  0  0  0  0  0  0  0  0
   -2.1576    1.8489   -1.6788 H   0  0  0  1  0  0  0  0  0  0  0  0
   -3.3258    1.2499   -0.1670 C   0  0  0  1  0  0  0  0  0  0  0  0
    1.3251   -1.0630   -0.0021 C   0  0  0  1  0  0  0  0  0  0  0  0
   -4.5579    1.1995   -1.0709 C   0  0  0  1  0  0  0  0  0  0  0  0
   -3.4204    0.9726    1.0279 O   0  0  0  1  0  0  0  0  0  0  0  0
    0.9011    0.7056   -1.0948 H   0  0  0  1  0  0  0  0  0  0  0  0
    0.6077   -1.8544    0.0587 H   0  0  0  1  0  0  0  0  0  0  0  0
    1.8374   -0.9736    0.9330 H   0  0  0  1  0  0  0  0  0  0  0  0
    2.0308   -1.2803   -0.7766 H   0  0  0  1  0  0  0  0  0  0  0  0
   -4.2549    0.9961   -2.0767 H   0  0  0  1  0  0  0  0  0  0  0  0
   -5.0651    2.1409   -1.0348 H   0  0  0  1  0  0  0  0  0  0  0  0
   -5.2159    0.4261   -0.7336 H   0  0  0  1  0  0  0  0  0  0  0  0
   -1.6228    7.5417    0.7261 F   0  0  0  1  0  0  0  0  0  0  0  0
   -2.2608    6.3603    0.8314 C   0  0  0  1  0  0  0  0  0  0  0  0
   -1.5345    5.1943    1.0172 C   0  0  0  1  0  0  0  0  0  0  0  0
   -2.1888    3.9813    1.1199 C   0  0  0  1  0  0  0  0  0  0  0  0
   -3.5719    3.9313    1.0424 C   0  0  0  1  0  0  0  0  0  0  0  0
   -4.2963    5.0937    0.8570 C   0  0  0  1  0  0  0  0  0  0  0  0
   -3.6399    6.3103    0.7541 C   0  0  0  1  0  0  0  0  0  0  0  0
   -1.3975    2.7098    1.3166 C   0  0  0  1  0  0  0  0  0  0  0  0
   -0.4971    5.2324    1.0794 H   0  0  0  1  0  0  0  0  0  0  0  0
   -4.0646    3.0190    1.1236 H   0  0  0  1  0  0  0  0  0  0  0  0
   -5.3338    5.0556    0.7949 H   0  0  0  1  0  0  0  0  0  0  0  0
   -4.1852    7.1855    0.6187 H   0  0  0  1  0  0  0  0  0  0  0  0
   -0.5022    2.9680    1.8425 H   0  0  0  1  0  0  0  0  0  0  0  0
   -1.9898    2.0542    1.9201 H   0  0  0  1  0  0  0  0  0  0  0  0
  1  4  1  0  0  0  0
  2  4  1  0  0  0  0
  2  5  2  0  0  0  0
  2  6  1  0  0  0  0
  3  4  1  0  0  0  0
  3  7  1  0  0  0  0
  3  8  1  0  0  0  0
  4 26  1  0  0  0  0
  6  9  1  0  0  0  0
  6 12  1  0  0  0  0
  8 10  1  0  0  0  0
  8 11  2  0  0  0  0
  9 13  1  0  0  0  0
  9 14  1  0  0  0  0
  9 15  1  0  0  0  0
 10 16  1  0  0  0  0
 10 17  1  0  0  0  0
 10 18  1  0  0  0  0
 19 20  1  0  0  0  0
 20 21  4  0  0  0  0
 20 25  4  0  0  0  0
 21 22  4  0  0  0  0
 21 27  1  0  0  0  0
 22 23  4  0  0  0  0
 22 26  1  0  0  0  0
 23 24  4  0  0  0  0
 23 28  1  0  0  0  0
 24 25  4  0  0  0  0
 24 29  1  0  0  0  0
 25 30  1  0  0  0  0
 26 31  1  0  0  0  0
 26 32  1  0  0  0  0
M  END
> <BCLConfClusterSize>
1

> <ConfClashScore>
0 

> <ConfOneFourInteractionScore>
-0.976146 

> <ConfScore>
0.348502 

> <ConfScorePBest>
0.00230857 

> <ConfTolerance>
1.58324 

> <RosettaParamsInstructions>
M  ROOT 3
M  POLY_N_BB 3
M  POLY_CA_BB 4
M  POLY_C_BB 2
M  POLY_O_BB 5
M  POLY_IGNORE 9 10 11 12 13 14 15 16 17 18 
M  POLY_UPPER 6
M  POLY_LOWER 8
M  POLY_CHG 0
M  POLY_PROPERTIES ALPHA_AA L_AA PROTEIN AROMATIC POLYMER 
M  END

$$$$



 32 32  0  0  0  0  0  0  0  0999 V2000
   -0.5893    1.0359    0.3599 H   0  0  0  1  0  0  0  0  0  0  0  0
   -2.4598    1.3134   -0.5466 C   0  0  0  1  0  0  0  0  0  0  0  0
   -0.4248    2.5899   -0.9715 N   0  0  0  1  0  0  0  0  0  0  0  0
   -1.1794    1.8778    0.0634 C   0  0  0  1  0  0  0  0  0  0  0  0
   -3.5206    1.2290    0.0511 O   0  0  0  1  0  0  0  0  0  0  0  0
   -2.3696    0.8981   -1.8133 N   0  0  0  1  0  0  0  0  0  0  0  0
    0.4798    2.2842   -1.1919 H   0  0  0  1  0  0  0  0  0  0  0  0
   -0.9273    3.6413   -1.6250 C   0  0  0  1  0  0  0  0  0  0  0  0
   -3.5188    0.3926   -2.5493 C   0  0  0  1  0  0  0  0  0  0  0  0
    0.0078    4.3110   -2.6131 C   0  0  0  1  0  0  0  0  0  0  0  0
   -2.0633    4.0507   -1.4509 O   0  0  0  1  0  0  0  0  0  0  0  0
   -1.4994    0.9353   -2.2624 H   0  0  0  1  0  0  0  0  0  0  0  0
   -3.2940   -0.5779   -2.9399 H   0  0  0  1  0  0  0  0  0  0  0  0
   -3.7459    1.0576   -3.3561 H   0  0  0  1  0  0  0  0  0  0  0  0
   -4.3613    0.3263   -1.8931 H   0  0  0  1  0  0  0  0  0  0  0  0
    0.9237    3.7607   -2.6675 H   0  0  0  1  0  0  0  0  0  0  0  0
    0.2112    5.3106   -2.2900 H   0  0  0  1  0  0  0  0  0  0  0  0
   -0.4519    4.3345   -3.5791 H   0  0  0  1  0  0  0  0  0  0  0  0
   -1.6228    7.5417    0.7261 F   0  0  0  1  0  0  0  0  0  0  0  0
   -2.2608    6.3603    0.8314 C   0  0  0  1  0  0  0  0  0  0  0  0
   -1.5345    5.1943    1.0172 C   0  0  0  1  0  0  0  0  0  0  0  0
   -2.1888    3.9813    1.1199 C   0  0  0  1  0  0  0  0  0  0  0  0
   -3.5719    3.9313    1.0424 C   0  0  0  1  0  0  0  0  0  0  0  0
   -4.2963    5.0937    0.8570 C   0  0  0  1  0  0  0  0  0  0  0  0
   -3.6399    6.3103    0.7541 C   0  0  0  1  0  0  0  0  0  0  0  0
   -1.3975    2.7098    1.3166 C   0  0  0  1  0  0  0  0  0  0  0  0
   -0.4971    5.2324    1.0794 H   0  0  0  1  0  0  0  0  0  0  0  0
   -4.0646    3.0190    1.1236 H   0  0  0  1  0  0  0  0  0  0  0  0
   -5.3338    5.0556    0.7949 H   0  0  0  1  0  0  0  0  0  0  0  0
   -4.1852    7.1855    0.6187 H   0  0  0  1  0  0  0  0  0  0  0  0
   -0.4377    2.9756    1.7076 H   0  0  0  1  0  0  0  0  0  0  0  0
   -1.9180    2.1039    2.0286 H   0  0  0  1  0  0  0  0  0  0  0  0
  1  4  1  0  0  0  0
  2  4  1  0  0  0  0
  2  5  2  0  0  0  0
  2  6  1  0  0  0  0
  3  4  1  0  0  0  0
  3  7  1  0  0  0  0
  3  8  1  0  0  0  0
  4 26  1  0  0  0  0
  6  9  1  0  0  0  0
  6 12  1  0  0  0  0
  8 10  1  0  0  0  0
  8 11  2  0  0  0  0
  9 13  1  0  0  0  0
  9 14  1  0  0  0  0
  9 15  1  0  0  0  0
 10 16  1  0  0  0  0
 10 17  1  0  0  0  0
 10 18  1  0  0  0  0
 19 20  1  0  0  0  0
 20 21  4  0  0  0  0
 20 25  4  0  0  0  0
 21 22  4  0  0  0  0
 21 27  1  0  0  0  0
 22 23  4  0  0  0  0
 22 26  1  0  0  0  0
 23 24  4  0  0  0  0
 23 28  1  0  0  0  0
 24 25  4  0  0  0  0
 24 29  1  0  0  0  0
 25 30  1  0  0  0  0
 26 31  1  0  0  0  0
 26 32  1  0  0  0  0
M  END
> <BCLConfClusterSize>
1

> <ConfClashScore>
0 

> <ConfOneFourInteractionScore>
-0.947651 

> <ConfScore>
0.369252 

> <ConfScorePBest>
0.00228009 

> <ConfTolerance>
1.33603 

> <RosettaParamsInstructions>
M  ROOT 3
M  POLY_N_BB 3
M  POLY_CA_BB 4
M  POLY_C_BB 2
M  POLY_O_BB 5
M  POLY_IGNORE 9 10 11 12 13 14 15 16 17 18 
M  POLY_UPPER 6
M  POLY_LOWER 8
M  POLY_CHG 0
M  POLY_PROPERTIES ALPHA_AA L_AA PROTEIN AROMATIC POLYMER 
M  END

$$$$



 32 32  0  0  0  0  0  0  0  0999 V2000
   -2.1257    2.1333    3.2182 H   0  0  0  1  0  0  0  0  0  0  0  0
   -0.2828    1.1412    2.9174 C   0  0  0  1  0  0  0  0  0  0  0  0
   -0.5923    3.4913    3.4994 N   0  0  0  1  0  0  0  0  0  0  0  0
   -1.1756    2.3659    2.7845 C   0  0  0  1  0  0  0  0  0  0  0  0
   -0.2655    0.5558    3.9993 O   0  0  0  1  0  0  0  0  0  0  0  0
    0.4322    0.7667    1.8588 N   0  0  0  1  0  0  0  0  0  0  0  0
    0.0535    4.0488    3.0172 H   0  0  0  1  0  0  0  0  0  0  0  0
   -0.8705    3.8212    4.7616 C   0  0  0  1  0  0  0  0  0  0  0  0
    1.2712   -0.4208    1.7979 C   0  0  0  1  0  0  0  0  0  0  0  0
   -0.1616    5.0521    5.2922 C   0  0  0  1  0  0  0  0  0  0  0  0
   -1.6483    3.1811    5.4642 O   0  0  0  1  0  0  0  0  0  0  0  0
    0.3905    1.3334    1.0603 H   0  0  0  1  0  0  0  0  0  0  0  0
    2.2645   -0.1727    2.1088 H   0  0  0  1  0  0  0  0  0  0  0  0
    1.2938   -0.7902    0.7939 H   0  0  0  1  0  0  0  0  0  0  0  0
    0.8722   -1.1727    2.4462 H   0  0  0  1  0  0  0  0  0  0  0  0
   -0.7971    5.9058    5.1817 H   0  0  0  1  0  0  0  0  0  0  0  0
    0.7429    5.2074    4.7421 H   0  0  0  1  0  0  0  0  0  0  0  0
    0.0697    4.9116    6.3275 H   0  0  0  1  0  0  0  0  0  0  0  0
   -1.6228    7.5417    0.7261 F   0  0  0  1  0  0  0  0  0  0  0  0
   -2.2608    6.3603    0.8314 C   0  0  0  1  0  0  0  0  0  0  0  0
   -1.5345    5.1943    1.0172 C   0  0  0  1  0  0  0  0  0  0  0  0
   -2.1888    3.9813    1.1199 C   0  0  0  1  0  0  0  0  0  0  0  0
   -3.5719    3.9313    1.0424 C   0  0  0  1  0  0  0  0  0  0  0  0
   -4.2963    5.0937    0.8570 C   0  0  0  1  0  0  0  0  0  0  0  0
   -3.6399    6.3103    0.7541 C   0  0  0  1  0  0  0  0  0  0  0  0
   -1.3975    2.7098    1.3166 C   0  0  0  1  0  0  0  0  0  0  0  0
   -0.4971    5.2324    1.0794 H   0  0  0  1  0  0  0  0  0  0  0  0
   -4.0646    3.0190    1.1236 H   0  0  0  1  0  0  0  0  0  0  0  0
   -5.3338    5.0556    0.7949 H   0  0  0  1  0  0  0  0  0  0  0  0
   -4.1852    7.1855    0.6187 H   0  0  0  1  0  0  0  0  0  0  0  0
   -1.9279    1.9036    0.8543 H   0  0  0  1  0  0  0  0  0  0  0  0
   -0.4436    2.8261    0.8460 H   0  0  0  1  0  0  0  0  0  0  0  0
  1  4  1  0  0  0  0
  2  4  1  0  0  0  0
  2  5  2  0  0  0  0
  2  6  1  0  0  0  0
  3  4  1  0  0  0  0
  3  7  1  0  0  0  0
  3  8  1  0  0  0  0
  4 26  1  0  0  0  0
  6  9  1  0  0  0  0
  6 12  1  0  0  0  0
  8 10  1  0  0  0  0
  8 11  2  0  0  0  0
  9 13  1  0  0  0  0
  9 14  1  0  0  0  0
  9 15  1  0  0  0  0
 10 16  1  0  0  0  0
 10 17  1  0  0  0  0
 10 18  1  0  0  0  0
 19 20  1  0  0  0  0
 20 21  4  0  0  0  0
 20 25  4  0  0  0  0
 21 22  4  0  0  0  0
 21 27  1  0  0  0  0
 22 23  4  0  0  0  0
 22 26  1  0  0  0  0
 23 24  4  0  0  0  0
 23 28  1  0  0  0  0
 24 25  4  0  0  0  0
 24 29  1  0  0  0  0
 25 30  1  0  0  0  0
 26 31  1  0  0  0  0
 26 32  1  0  0  0  0
M  END
> <BCLConfClusterSize>
1

> <ConfClashScore>
0 

> <ConfOneFourInteractionScore>
-0.952541 

> <ConfScore>
0.369432 

> <ConfScorePBest>
0.00225161 

> <ConfTolerance>
1.37529 

> <RosettaParamsInstructions>
M  ROOT 3
M  POLY_N_BB 3
M  POLY_CA_BB 4
M  POLY_C_BB 2
M  POLY_O_BB 5
M  POLY_IGNORE 9 10 11 12 13 14 15 16 17 18 
M  POLY_UPPER 6
M  POLY_LOWER 8
M  POLY_CHG 0
M  POLY_PROPERTIES ALPHA_AA L_AA PROTEIN AROMATIC POLYMER 
M  END

$$$$



 32 32  0  0  0  0  0  0  0  0999 V2000
    0.0377    3.5229    2.6532 H   0  0  0  1  0  0  0  0  0  0  0  0
   -1.5820    2.7814    3.8028 C   0  0  0  1  0  0  0  0  0  0  0  0
    0.1359    1.4499    2.7817 N   0  0  0  1  0  0  0  0  0  0  0  0
   -0.6263    2.6842    2.6297 C   0  0  0  1  0  0  0  0  0  0  0  0
   -1.8310    3.8618    4.3354 O   0  0  0  1  0  0  0  0  0  0  0  0
   -2.1258    1.6234    4.2095 N   0  0  0  1  0  0  0  0  0  0  0  0
   -0.2392    0.7541    3.3609 H   0  0  0  1  0  0  0  0  0  0  0  0
    1.3186    1.1940    2.1849 C   0  0  0  1  0  0  0  0  0  0  0  0
   -3.0307    1.5468    5.3452 C   0  0  0  1  0  0  0  0  0  0  0  0
    1.9489   -0.1672    2.4062 C   0  0  0  1  0  0  0  0  0  0  0  0
    1.8704    2.0370    1.4825 O   0  0  0  1  0  0  0  0  0  0  0  0
   -1.9054    0.8011    3.7242 H   0  0  0  1  0  0  0  0  0  0  0  0
   -3.9341    2.0735    5.1183 H   0  0  0  1  0  0  0  0  0  0  0  0
   -2.5660    1.9888    6.2017 H   0  0  0  1  0  0  0  0  0  0  0  0
   -3.2580    0.5217    5.5513 H   0  0  0  1  0  0  0  0  0  0  0  0
    1.9190   -0.7271    1.4948 H   0  0  0  1  0  0  0  0  0  0  0  0
    1.4067   -0.6920    3.1648 H   0  0  0  1  0  0  0  0  0  0  0  0
    2.9658   -0.0432    2.7150 H   0  0  0  1  0  0  0  0  0  0  0  0
   -1.6228    7.5417    0.7261 F   0  0  0  1  0  0  0  0  0  0  0  0
   -2.2608    6.3603    0.8314 C   0  0  0  1  0  0  0  0  0  0  0  0
   -1.5345    5.1943    1.0172 C   0  0  0  1  0  0  0  0  0  0  0  0
   -2.1888    3.9813    1.1199 C   0  0  0  1  0  0  0  0  0  0  0  0
   -3.5719    3.9313    1.0424 C   0  0  0  1  0  0  0  0  0  0  0  0
   -4.2963    5.0937    0.8570 C   0  0  0  1  0  0  0  0  0  0  0  0
   -3.6399    6.3103    0.7541 C   0  0  0  1  0  0  0  0  0  0  0  0
   -1.3975    2.7098    1.3166 C   0  0  0  1  0  0  0  0  0  0  0  0
   -0.4971    5.2324    1.0794 H   0  0  0  1  0  0  0  0  0  0  0  0
   -4.0646    3.0190    1.1236 H   0  0  0  1  0  0  0  0  0  0  0  0
   -5.3338    5.0556    0.7949 H   0  0  0  1  0  0  0  0  0  0  0  0
   -4.1852    7.1855    0.6187 H   0  0  0  1  0  0  0  0  0  0  0  0
   -2.0749    1.8816    1.3032 H   0  0  0  1  0  0  0  0  0  0  0  0
   -0.7006    2.6143    0.5103 H   0  0  0  1  0  0  0  0  0  0  0  0
  1  4  1  0  0  0  0
  2  4  1  0  0  0  0
  2  5  2  0  0  0  0
  2  6  1  0  0  0  0
  3  4  1  0  0  0  0
  3  7  1  0  0  0  0
  3  8  1  0  0  0  0
  4 26  1  0  0  0  0
  6  9  1  0  0  0  0
  6 12  1  0  0  0  0
  8 10  1  0  0  0  0
  8 11  2  0  0  0  0
  9 13  1  0  0  0  0
  9 14  1  0  0  0  0
  9 15  1  0  0  0  0
 10 16  1  0  0  0  0
 10 17  1  0  0  0  0
 10 18  1  0  0  0  0
 19 20  1  0  0  0  0
 20 21  4  0  0  0  0
 20 25  4  0  0  0  0
 21 22  4  0  0  0  0
 21 27  1  0  0  0  0
 22 23  4  0  0  0  0
 22 26  1  0  0  0  0
 23 24  4  0  0  0  0
 23 28  1  0  0  0  0
 24 25  4  0  0  0  0
 24 29  1  0  0  0  0
 25 30  1  0  0  0  0
 26 31  1  0  0  0  0
 26 32  1  0  0  0  0
M  END
> <BCLConfClusterSize>
1

> <ConfClashScore>
0 

> <ConfOneFourInteractionScore>
-0.946346 

> <ConfScore>
0.370705 

> <ConfScorePBest>
0.00222313 

> <ConfTolerance>
1.17665 

> <RosettaParamsInstructions>
M  ROOT 3
M  POLY_N_BB 3
M  POLY_CA_BB 4
M  POLY_C_BB 2
M  POLY_O_BB 5
M  POLY_IGNORE 9 10 11 12 13 14 15 16 17 18 
M  POLY_UPPER 6
M  POLY_LOWER 8
M  POLY_CHG 0
M  POLY_PROPERTIES ALPHA_AA L_AA PROTEIN AROMATIC POLYMER 
M  END

$$$$



 32 32  0  0  0  0  0  0  0  0999 V2000
   -2.0821    1.8590   -0.5498 H   0  0  0  1  0  0  0  0  0  0  0  0
   -0.3761    3.0253   -0.9714 C   0  0  0  1  0  0  0  0  0  0  0  0
   -0.4368    0.7676    0.0472 N   0  0  0  1  0  0  0  0  0  0  0  0
   -1.1340    2.0415   -0.0887 C   0  0  0  1  0  0  0  0  0  0  0  0
    0.8454    2.9562   -1.1017 O   0  0  0  1  0  0  0  0  0  0  0  0
   -1.1251    3.9553   -1.5848 N   0  0  0  1  0  0  0  0  0  0  0  0
   -0.9455   -0.0635   -0.0578 H   0  0  0  1  0  0  0  0  0  0  0  0
    0.8821    0.6936    0.3122 C   0  0  0  1  0  0  0  0  0  0  0  0
   -0.5412    5.0109   -2.3987 C   0  0  0  1  0  0  0  0  0  0  0  0
    1.4552   -0.7028    0.1686 C   0  0  0  1  0  0  0  0  0  0  0  0
    1.5847    1.6483    0.6418 O   0  0  0  1  0  0  0  0  0  0  0  0
   -2.0990    3.9221   -1.4808 H   0  0  0  1  0  0  0  0  0  0  0  0
    0.5258    4.9362   -2.3688 H   0  0  0  1  0  0  0  0  0  0  0  0
   -0.8425    5.9638   -2.0163 H   0  0  0  1  0  0  0  0  0  0  0  0
   -0.8775    4.9091   -3.4093 H   0  0  0  1  0  0  0  0  0  0  0  0
    1.7086   -0.8814   -0.8555 H   0  0  0  1  0  0  0  0  0  0  0  0
    0.7282   -1.4208    0.4862 H   0  0  0  1  0  0  0  0  0  0  0  0
    2.3331   -0.7918    0.7737 H   0  0  0  1  0  0  0  0  0  0  0  0
   -1.6229    7.5419    0.7201 F   0  0  0  1  0  0  0  0  0  0  0  0
   -2.2607    6.3610    0.8321 C   0  0  0  1  0  0  0  0  0  0  0  0
   -1.5347    5.1973    1.0326 C   0  0  0  1  0  0  0  0  0  0  0  0
   -2.1888    3.9847    1.1423 C   0  0  0  1  0  0  0  0  0  0  0  0
   -3.5713    3.9330    1.0571 C   0  0  0  1  0  0  0  0  0  0  0  0
   -4.2955    5.0931    0.8572 C   0  0  0  1  0  0  0  0  0  0  0  0
   -3.6393    6.3092    0.7473 C   0  0  0  1  0  0  0  0  0  0  0  0
   -1.4017    2.7007    1.2580 C   0  0  0  1  0  0  0  0  0  0  0  0
   -0.4977    5.2366    1.1005 H   0  0  0  1  0  0  0  0  0  0  0  0
   -4.0638    3.0211    1.1436 H   0  0  0  1  0  0  0  0  0  0  0  0
   -5.3325    5.0537    0.7893 H   0  0  0  1  0  0  0  0  0  0  0  0
   -4.1844    7.1828    0.6009 H   0  0  0  1  0  0  0  0  0  0  0  0
   -0.4630    2.9175    1.7237 H   0  0  0  1  0  0  0  0  0  0  0  0
   -1.9536    2.0167    1.8683 H   0  0  0  1  0  0  0  0  0  0  0  0
  1  4  1  0  0  0  0
  2  4  1  0  0  0  0
  2  5  2  0  0  0  0
  2  6  1  0  0  0  0
  3  4  1  0  0  0  0
  3  7  1  0  0  0  0
  3  8  1  0  0  0  0
  4 26  1  0  0  0  0
  6  9  1  0  0  0  0
  6 12  1  0  0  0  0
  8 10  1  0  0  0  0
  8 11  2  0  0  0  0
  9 13  1  0  0  0  0
  9 14  1  0  0  0  0
  9 15  1  0  0  0  0
 10 16  1  0  0  0  0
 10 17  1  0  0  0  0
 10 18  1  0  0  0  0
 19 20  1  0  0  0  0
 20 21  4  0  0  0  0
 20 25  4  0  0  0  0
 21 22  4  0  0  0  0
 21 27  1  0  0  0  0
 22 23  4  0  0  0  0
 22 26  1  0  0  0  0
 23 24  4  0  0  0  0
 23 28  1  0  0  0  0
 24 25  4  0  0  0  0
 24 29  1  0  0  0  0
 25 30  1  0  0  0  0
 26 31  1  0  0  0  0
 26 32  1  0  0  0  0
M  END
> <BCLConfClusterSize>
1

> <ConfClashScore>
0 

> <ConfOneFourInteractionScore>
-0.987258 

> <ConfScore>
0.433343 

> <ConfScorePBest>
0.00219465 

> <ConfTolerance>
1.4175 

> <RosettaParamsInstructions>
M  ROOT 3
M  POLY_N_BB 3
M  POLY_CA_BB 4
M  POLY_C_BB 2
M  POLY_O_BB 5
M  POLY_IGNORE 9 10 11 12 13 14 15 16 17 18 
M  POLY_UPPER 6
M  POLY_LOWER 8
M  POLY_CHG 0
M  POLY_PROPERTIES ALPHA_AA L_AA PROTEIN AROMATIC POLYMER 
M  END

$$$$



 32 32  0  0  0  0  0  0  0  0999 V2000
   -0.8324    2.9168    3.3332 H   0  0  0  1  0  0  0  0  0  0  0  0
   -2.8758    2.4018    3.3553 C   0  0  0  1  0  0  0  0  0  0  0  0
   -0.9553    0.9044    2.9572 N   0  0  0  1  0  0  0  0  0  0  0  0
   -1.4630    2.2561    2.7757 C   0  0  0  1  0  0  0  0  0  0  0  0
   -3.6042    1.4263    3.4336 O   0  0  0  1  0  0  0  0  0  0  0  0
   -3.2114    3.6100    3.8346 N   0  0  0  1  0  0  0  0  0  0  0  0
   -0.1216    0.7753    3.4560 H   0  0  0  1  0  0  0  0  0  0  0  0
   -1.5923   -0.1772    2.4626 C   0  0  0  1  0  0  0  0  0  0  0  0
   -4.5456    3.9650    4.2948 C   0  0  0  1  0  0  0  0  0  0  0  0
   -0.8981   -1.5214    2.5637 C   0  0  0  1  0  0  0  0  0  0  0  0
   -2.7037   -0.0784    1.9444 O   0  0  0  1  0  0  0  0  0  0  0  0
   -2.5135    4.2967    3.8774 H   0  0  0  1  0  0  0  0  0  0  0  0
   -5.0020    3.1147    4.7569 H   0  0  0  1  0  0  0  0  0  0  0  0
   -5.1384    4.2787    3.4612 H   0  0  0  1  0  0  0  0  0  0  0  0
   -4.4772    4.7626    5.0048 H   0  0  0  1  0  0  0  0  0  0  0  0
   -0.0063   -1.5082    1.9725 H   0  0  0  1  0  0  0  0  0  0  0  0
   -1.5523   -2.2883    2.2048 H   0  0  0  1  0  0  0  0  0  0  0  0
   -0.6457   -1.7164    3.5851 H   0  0  0  1  0  0  0  0  0  0  0  0
   -1.6225    7.5413    0.7262 F   0  0  0  1  0  0  0  0  0  0  0  0
   -2.2606    6.3599    0.8314 C   0  0  0  1  0  0  0  0  0  0  0  0
   -1.5343    5.1939    1.0173 C   0  0  0  1  0  0  0  0  0  0  0  0
   -2.1886    3.9809    1.1199 C   0  0  0  1  0  0  0  0  0  0  0  0
   -3.5717    3.9309    1.0424 C   0  0  0  1  0  0  0  0  0  0  0  0
   -4.2961    5.0933    0.8571 C   0  0  0  1  0  0  0  0  0  0  0  0
   -3.6396    6.3099    0.7541 C   0  0  0  1  0  0  0  0  0  0  0  0
   -1.4004    2.7143    1.3158 C   0  0  0  1  0  0  0  0  0  0  0  0
   -0.4968    5.2319    1.0794 H   0  0  0  1  0  0  0  0  0  0  0  0
   -4.0643    3.0186    1.1237 H   0  0  0  1  0  0  0  0  0  0  0  0
   -5.3335    5.0552    0.7949 H   0  0  0  1  0  0  0  0  0  0  0  0
   -4.1849    7.1851    0.6187 H   0  0  0  1  0  0  0  0  0  0  0  0
   -1.8069    1.9477    0.6898 H   0  0  0  1  0  0  0  0  0  0  0  0
   -0.3799    2.8911    1.0471 H   0  0  0  1  0  0  0  0  0  0  0  0
  1  4  1  0  0  0  0
  2  4  1  0  0  0  0
  2  5  2  0  0  0  0
  2  6  1  0  0  0  0
  3  4  1  0  0  0  0
  3  7  1  0  0  0  0
  3  8  1  0  0  0  0
  4 26  1  0  0  0  0
  6  9  1  0  0  0  0
  6 12  1  0  0  0  0
  8 10  1  0  0  0  0
  8 11  2  0  0  0  0
  9 13  1  0  0  0  0
  9 14  1  0  0  0  0
  9 15  1  0  0  0  0
 10 16  1  0  0  0  0
 10 17  1  0  0  0  0
 10 18  1  0  0  0  0
 19 20  1  0  0  0  0
 20 21  4  0  0  0  0
 20 25  4  0  0  0  0
 21 22  4  0  0  0  0
 21 27  1  0  0  0  0
 22 23  4  0  0  0  0
 22 26  1  0  0  0  0
 23 24  4  0  0  0  0
 23 28  1  0  0  0  0
 24 25  4  0  0  0  0
 24 29  1  0  0  0  0
 25 30  1  0  0  0  0
 26 31  1  0  0  0  0
 26 32  1  0  0  0  0
M  END
> <BCLConfClusterSize>
1

> <ConfClashScore>
0 

> <ConfOneFourInteractionScore>
-0.973668 

> <ConfScore>
0.442122 

> <ConfScorePBest>
0.00216617 

> <ConfTolerance>
2.27329 

> <RosettaParamsInstructions>
M  ROOT 3
M  POLY_N_BB 3
M  POLY_CA_BB 4
M  POLY_C_BB 2
M  POLY_O_BB 5
M  POLY_IGNORE 9 10 11 12 13 14 15 16 17 18 
M  POLY_UPPER 6
M  POLY_LOWER 8
M  POLY_CHG 0
M  POLY_PROPERTIES ALPHA_AA L_AA PROTEIN AROMATIC POLYMER 
M  END

$$$$
