


 34 34  0  0  0  0  0  0  0  0999 V2000
   -0.3855    2.5459   -0.5965 H   0  0  0  1  0  0  0  0  0  0  0  0
   -0.5034    0.6328    0.3198 C   0  0  0  1  0  0  0  0  0  0  0  0
   -2.2979    1.7515   -0.8352 N   0  0  0  1  0  0  0  0  0  0  0  0
   -1.0994    1.9748   -0.0405 C   0  0  0  1  0  0  0  0  0  0  0  0
    0.7050    0.5113    0.5164 O   0  0  0  1  0  0  0  0  0  0  0  0
   -1.3313   -0.4194    0.4184 N   0  0  0  1  0  0  0  0  0  0  0  0
   -3.1689    2.0525   -0.5016 H   0  0  0  1  0  0  0  0  0  0  0  0
   -2.2108    1.1174   -2.0559 C   0  0  0  1  0  0  0  0  0  0  0  0
   -0.8180   -1.7168    0.8322 C   0  0  0  1  0  0  0  0  0  0  0  0
   -3.5029    0.9461   -2.8000 C   0  0  0  1  0  0  0  0  0  0  0  0
   -1.1323    0.7351   -2.4691 O   0  0  0  1  0  0  0  0  0  0  0  0
   -2.2833   -0.3136    0.2114 H   0  0  0  1  0  0  0  0  0  0  0  0
    0.2135   -1.7964    0.5592 H   0  0  0  1  0  0  0  0  0  0  0  0
   -1.3755   -2.4914    0.3486 H   0  0  0  1  0  0  0  0  0  0  0  0
   -0.9145   -1.8164    1.8932 H   0  0  0  1  0  0  0  0  0  0  0  0
   -4.2923    0.7502   -2.1047 H   0  0  0  1  0  0  0  0  0  0  0  0
   -3.4160    0.1253   -3.4809 H   0  0  0  1  0  0  0  0  0  0  0  0
   -3.7218    1.8405   -3.3449 H   0  0  0  1  0  0  0  0  0  0  0  0
   -1.4301    2.7063    1.2501 C   0  0  0  1  0  0  0  0  0  0  0  0
   -1.9237    4.1185    1.0830 C   0  0  0  1  0  0  0  0  0  0  0  0
   -1.0368    5.1386    0.7756 C   0  0  0  1  0  0  0  0  0  0  0  0
   -1.5080    6.4167    0.5418 C   0  0  0  1  0  0  0  0  0  0  0  0
   -2.8677    6.6775    0.6094 C   0  0  0  1  0  0  0  0  0  0  0  0
   -3.7518    5.6604    0.9160 C   0  0  0  1  0  0  0  0  0  0  0  0
   -3.2795    4.3784    1.1505 C   0  0  0  1  0  0  0  0  0  0  0  0
   -3.3775    7.9126    0.3832 O   0  0  0  1  0  0  0  0  0  0  0  0
   -0.6800    7.4472    0.2430 O   0  0  0  1  0  0  0  0  0  0  0  0
   -0.5443    2.7350    1.8496 H   0  0  0  1  0  0  0  0  0  0  0  0
   -2.1885    2.1497    1.7599 H   0  0  0  1  0  0  0  0  0  0  0  0
   -0.0170    4.9421    0.7208 H   0  0  0  1  0  0  0  0  0  0  0  0
   -4.7716    5.8568    0.9707 H   0  0  0  1  0  0  0  0  0  0  0  0
   -3.9452    3.6122    1.3773 H   0  0  0  1  0  0  0  0  0  0  0  0
   -3.6024    8.3248    1.2205 H   0  0  0  1  0  0  0  0  0  0  0  0
   -0.2878    7.7876    1.0504 H   0  0  0  1  0  0  0  0  0  0  0  0
  1  4  1  0  0  0  0
  2  4  1  0  0  0  0
  2  5  2  0  0  0  0
  2  6  1  0  0  0  0
  3  4  1  0  0  0  0
  3  7  1  0  0  0  0
  3  8  1  0  0  0  0
  4 19  1  0  0  0  0
  6  9  1  0  0  0  0
  6 12  1  0  0  0  0
  8 10  1  0  0  0  0
  8 11  2  0  0  0  0
  9 13  1  0  0  0  0
  9 14  1  0  0  0  0
  9 15  1  0  0  0  0
 10 16  1  0  0  0  0
 10 17  1  0  0  0  0
 10 18  1  0  0  0  0
 19 20  1  0  0  0  0
 19 28  1  0  0  0  0
 19 29  1  0  0  0  0
 20 21  4  0  0  0  0
 20 25  4  0  0  0  0
 21 22  4  0  0  0  0
 21 30  1  0  0  0  0
 22 23  4  0  0  0  0
 22 27  1  0  0  0  0
 23 24  4  0  0  0  0
 23 26  1  0  0  0  0
 24 25  4  0  0  0  0
 24 31  1  0  0  0  0
 25 32  1  0  0  0  0
 26 33  1  0  0  0  0
 27 34  1  0  0  0  0
M  END
> <BCLConfClusterSize>
1

> <ConfClashScore>
0 

> <ConfOneFourInteractionScore>
-0.960318 

> <ConfScore>
-0.253832 

> <ConfScorePBest>
0.00783383 

> <ConfTolerance>
0.179414 

> <RosettaParamsInstructions>
M  ROOT 3
M  POLY_N_BB 3
M  POLY_CA_BB 4
M  POLY_C_BB 2
M  POLY_O_BB 5
M  POLY_IGNORE 9 10 11 12 13 14 15 16 17 18 
M  POLY_UPPER 6
M  POLY_LOWER 8
M  POLY_CHG 0
M  POLY_PROPERTIES ALPHA_AA L_AA PROTEIN AROMATIC POLYMER 
M  END

$$$$



 34 34  0  0  0  0  0  0  0  0999 V2000
   -0.6225    2.5376   -0.7458 H   0  0  0  1  0  0  0  0  0  0  0  0
   -0.6947    0.6002    0.0629 C   0  0  0  1  0  0  0  0  0  0  0  0
   -2.5438    1.8247   -0.8744 N   0  0  0  1  0  0  0  0  0  0  0  0
   -1.3012    1.9815   -0.1334 C   0  0  0  1  0  0  0  0  0  0  0  0
   -1.3938   -0.4095    0.0572 O   0  0  0  1  0  0  0  0  0  0  0  0
    0.6357    0.5672    0.2396 N   0  0  0  1  0  0  0  0  0  0  0  0
   -3.3157    1.3957   -0.4496 H   0  0  0  1  0  0  0  0  0  0  0  0
   -2.6353    2.2681   -2.1434 C   0  0  0  1  0  0  0  0  0  0  0  0
    1.3703   -0.6811    0.3812 C   0  0  0  1  0  0  0  0  0  0  0  0
   -4.0096    2.1729   -2.7770 C   0  0  0  1  0  0  0  0  0  0  0  0
   -1.6762    2.7244   -2.7643 O   0  0  0  1  0  0  0  0  0  0  0  0
    1.1293    1.4130    0.2743 H   0  0  0  1  0  0  0  0  0  0  0  0
    0.8405   -1.4658   -0.1172 H   0  0  0  1  0  0  0  0  0  0  0  0
    1.4687   -0.9209    1.4194 H   0  0  0  1  0  0  0  0  0  0  0  0
    2.3418   -0.5743   -0.0543 H   0  0  0  1  0  0  0  0  0  0  0  0
   -4.7230    2.6784   -2.1603 H   0  0  0  1  0  0  0  0  0  0  0  0
   -4.2872    1.1440   -2.8731 H   0  0  0  1  0  0  0  0  0  0  0  0
   -3.9883    2.6290   -3.7447 H   0  0  0  1  0  0  0  0  0  0  0  0
   -1.4093    2.7189    1.1948 C   0  0  0  1  0  0  0  0  0  0  0  0
   -1.9288    4.1242    1.0485 C   0  0  0  1  0  0  0  0  0  0  0  0
   -1.0417    5.1829    0.9313 C   0  0  0  1  0  0  0  0  0  0  0  0
   -1.5194    6.4735    0.8023 C   0  0  0  1  0  0  0  0  0  0  0  0
   -2.8854    6.7086    0.7848 C   0  0  0  1  0  0  0  0  0  0  0  0
   -3.7697    5.6529    0.9017 C   0  0  0  1  0  0  0  0  0  0  0  0
   -3.2908    4.3585    1.0311 C   0  0  0  1  0  0  0  0  0  0  0  0
   -3.4012    7.9551    0.6553 O   0  0  0  1  0  0  0  0  0  0  0  0
   -0.5942    7.4582    0.6979 O   0  0  0  1  0  0  0  0  0  0  0  0
   -0.4380    2.7597    1.6418 H   0  0  0  1  0  0  0  0  0  0  0  0
   -2.0737    2.1750    1.8333 H   0  0  0  1  0  0  0  0  0  0  0  0
   -0.0169    5.0062    0.9404 H   0  0  0  1  0  0  0  0  0  0  0  0
   -4.7945    5.8296    0.8926 H   0  0  0  1  0  0  0  0  0  0  0  0
   -3.9564    3.5637    1.1150 H   0  0  0  1  0  0  0  0  0  0  0  0
   -3.4975    8.3539    1.5232 H   0  0  0  1  0  0  0  0  0  0  0  0
   -0.3733    7.5936   -0.2265 H   0  0  0  1  0  0  0  0  0  0  0  0
  1  4  1  0  0  0  0
  2  4  1  0  0  0  0
  2  5  2  0  0  0  0
  2  6  1  0  0  0  0
  3  4  1  0  0  0  0
  3  7  1  0  0  0  0
  3  8  1  0  0  0  0
  4 19  1  0  0  0  0
  6  9  1  0  0  0  0
  6 12  1  0  0  0  0
  8 10  1  0  0  0  0
  8 11  2  0  0  0  0
  9 13  1  0  0  0  0
  9 14  1  0  0  0  0
  9 15  1  0  0  0  0
 10 16  1  0  0  0  0
 10 17  1  0  0  0  0
 10 18  1  0  0  0  0
 19 20  1  0  0  0  0
 19 28  1  0  0  0  0
 19 29  1  0  0  0  0
 20 21  4  0  0  0  0
 20 25  4  0  0  0  0
 21 22  4  0  0  0  0
 21 30  1  0  0  0  0
 22 23  4  0  0  0  0
 22 27  1  0  0  0  0
 23 24  4  0  0  0  0
 23 26  1  0  0  0  0
 24 25  4  0  0  0  0
 24 31  1  0  0  0  0
 25 32  1  0  0  0  0
 26 33  1  0  0  0  0
 27 34  1  0  0  0  0
M  END
> <BCLConfClusterSize>
1

> <ConfClashScore>
0 

> <ConfOneFourInteractionScore>
-0.992391 

> <ConfScore>
-0.253442 

> <ConfScorePBest>
0.00780535 

> <ConfTolerance>
0.189988 

> <RosettaParamsInstructions>
M  ROOT 3
M  POLY_N_BB 3
M  POLY_CA_BB 4
M  POLY_C_BB 2
M  POLY_O_BB 5
M  POLY_IGNORE 9 10 11 12 13 14 15 16 17 18 
M  POLY_UPPER 6
M  POLY_LOWER 8
M  POLY_CHG 0
M  POLY_PROPERTIES ALPHA_AA L_AA PROTEIN AROMATIC POLYMER 
M  END

$$$$



 34 34  0  0  0  0  0  0  0  0999 V2000
   -1.8733    2.7480    3.3679 H   0  0  0  1  0  0  0  0  0  0  0  0
   -0.9925    0.8804    2.9789 C   0  0  0  1  0  0  0  0  0  0  0  0
    0.1471    3.0727    3.1311 N   0  0  0  1  0  0  0  0  0  0  0  0
   -1.0786    2.3775    2.7546 C   0  0  0  1  0  0  0  0  0  0  0  0
   -1.9343    0.2517    3.4601 O   0  0  0  1  0  0  0  0  0  0  0  0
    0.1650    0.3026    2.6205 N   0  0  0  1  0  0  0  0  0  0  0  0
    0.6038    3.5652    2.4175 H   0  0  0  1  0  0  0  0  0  0  0  0
    0.7204    3.1145    4.3435 C   0  0  0  1  0  0  0  0  0  0  0  0
    0.4756   -1.1101    2.7805 C   0  0  0  1  0  0  0  0  0  0  0  0
    1.9462    3.9991    4.4623 C   0  0  0  1  0  0  0  0  0  0  0  0
    0.2931    2.4826    5.3087 O   0  0  0  1  0  0  0  0  0  0  0  0
    0.8526    0.8753    2.2210 H   0  0  0  1  0  0  0  0  0  0  0  0
   -0.3828   -1.6957    2.5255 H   0  0  0  1  0  0  0  0  0  0  0  0
    0.7487   -1.3021    3.7971 H   0  0  0  1  0  0  0  0  0  0  0  0
    1.2893   -1.3713    2.1367 H   0  0  0  1  0  0  0  0  0  0  0  0
    2.6652    3.7144    3.7228 H   0  0  0  1  0  0  0  0  0  0  0  0
    2.3737    3.8868    5.4368 H   0  0  0  1  0  0  0  0  0  0  0  0
    1.6648    5.0203    4.3112 H   0  0  0  1  0  0  0  0  0  0  0  0
   -1.4361    2.6977    1.3124 C   0  0  0  1  0  0  0  0  0  0  0  0
   -1.9303    4.0981    1.0658 C   0  0  0  1  0  0  0  0  0  0  0  0
   -1.0302    5.1083    0.7647 C   0  0  0  1  0  0  0  0  0  0  0  0
   -1.4841    6.3950    0.5437 C   0  0  0  1  0  0  0  0  0  0  0  0
   -2.8399    6.6740    0.6178 C   0  0  0  1  0  0  0  0  0  0  0  0
   -3.7372    5.6667    0.9180 C   0  0  0  1  0  0  0  0  0  0  0  0
   -3.2822    4.3762    1.1398 C   0  0  0  1  0  0  0  0  0  0  0  0
   -3.2608    7.9423    0.3918 O   0  0  0  1  0  0  0  0  0  0  0  0
   -0.6427    7.4164    0.2515 O   0  0  0  1  0  0  0  0  0  0  0  0
   -2.2027    2.0180    1.0037 H   0  0  0  1  0  0  0  0  0  0  0  0
   -0.5620    2.5460    0.7142 H   0  0  0  1  0  0  0  0  0  0  0  0
   -0.0133    4.8982    0.7052 H   0  0  0  1  0  0  0  0  0  0  0  0
   -4.7540    5.8768    0.9776 H   0  0  0  1  0  0  0  0  0  0  0  0
   -3.9579    3.6174    1.3617 H   0  0  0  1  0  0  0  0  0  0  0  0
   -3.6546    8.2967    1.1925 H   0  0  0  1  0  0  0  0  0  0  0  0
   -0.4558    7.9159    1.0497 H   0  0  0  1  0  0  0  0  0  0  0  0
  1  4  1  0  0  0  0
  2  4  1  0  0  0  0
  2  5  2  0  0  0  0
  2  6  1  0  0  0  0
  3  4  1  0  0  0  0
  3  7  1  0  0  0  0
  3  8  1  0  0  0  0
  4 19  1  0  0  0  0
  6  9  1  0  0  0  0
  6 12  1  0  0  0  0
  8 10  1  0  0  0  0
  8 11  2  0  0  0  0
  9 13  1  0  0  0  0
  9 14  1  0  0  0  0
  9 15  1  0  0  0  0
 10 16  1  0  0  0  0
 10 17  1  0  0  0  0
 10 18  1  0  0  0  0
 19 20  1  0  0  0  0
 19 28  1  0  0  0  0
 19 29  1  0  0  0  0
 20 21  4  0  0  0  0
 20 25  4  0  0  0  0
 21 22  4  0  0  0  0
 21 30  1  0  0  0  0
 22 23  4  0  0  0  0
 22 27  1  0  0  0  0
 23 24  4  0  0  0  0
 23 26  1  0  0  0  0
 24 25  4  0  0  0  0
 24 31  1  0  0  0  0
 25 32  1  0  0  0  0
 26 33  1  0  0  0  0
 27 34  1  0  0  0  0
M  END
> <BCLConfClusterSize>
1

> <ConfClashScore>
0 

> <ConfOneFourInteractionScore>
-0.956443 

> <ConfScore>
-0.242039 

> <ConfScorePBest>
0.00777687 

> <ConfTolerance>
0.202339 

> <RosettaParamsInstructions>
M  ROOT 3
M  POLY_N_BB 3
M  POLY_CA_BB 4
M  POLY_C_BB 2
M  POLY_O_BB 5
M  POLY_IGNORE 9 10 11 12 13 14 15 16 17 18 
M  POLY_UPPER 6
M  POLY_LOWER 8
M  POLY_CHG 0
M  POLY_PROPERTIES ALPHA_AA L_AA PROTEIN AROMATIC POLYMER 
M  END

$$$$



 34 34  0  0  0  0  0  0  0  0999 V2000
   -2.5103    2.1174    2.7428 H   0  0  0  1  0  0  0  0  0  0  0  0
   -1.0242    0.6520    2.5417 C   0  0  0  1  0  0  0  0  0  0  0  0
   -0.7525    2.8937    3.4649 N   0  0  0  1  0  0  0  0  0  0  0  0
   -1.4776    2.1075    2.4630 C   0  0  0  1  0  0  0  0  0  0  0  0
   -1.8328   -0.2730    2.4757 O   0  0  0  1  0  0  0  0  0  0  0  0
    0.2881    0.4607    2.6847 N   0  0  0  1  0  0  0  0  0  0  0  0
   -0.2769    3.7013    3.1788 H   0  0  0  1  0  0  0  0  0  0  0  0
   -0.7174    2.5477    4.7549 C   0  0  0  1  0  0  0  0  0  0  0  0
    0.8854   -0.8671    2.6819 C   0  0  0  1  0  0  0  0  0  0  0  0
    0.0560    3.4806    5.6663 C   0  0  0  1  0  0  0  0  0  0  0  0
   -1.2701    1.5421    5.1928 O   0  0  0  1  0  0  0  0  0  0  0  0
    0.8705    1.2411    2.7956 H   0  0  0  1  0  0  0  0  0  0  0  0
    0.1477   -1.5912    2.9583 H   0  0  0  1  0  0  0  0  0  0  0  0
    1.6934   -0.8960    3.3828 H   0  0  0  1  0  0  0  0  0  0  0  0
    1.2542   -1.0900    1.7025 H   0  0  0  1  0  0  0  0  0  0  0  0
    1.0793    3.5161    5.3558 H   0  0  0  1  0  0  0  0  0  0  0  0
    0.0012    3.1219    6.6729 H   0  0  0  1  0  0  0  0  0  0  0  0
   -0.3668    4.4621    5.6134 H   0  0  0  1  0  0  0  0  0  0  0  0
   -1.4047    2.7130    1.0644 C   0  0  0  1  0  0  0  0  0  0  0  0
   -1.9303    4.1298    0.9414 C   0  0  0  1  0  0  0  0  0  0  0  0
   -1.0797    5.2039    0.7302 C   0  0  0  1  0  0  0  0  0  0  0  0
   -1.5823    6.4914    0.7194 C   0  0  0  1  0  0  0  0  0  0  0  0
   -2.9374    6.7083    0.9144 C   0  0  0  1  0  0  0  0  0  0  0  0
   -3.7852    5.6374    1.1250 C   0  0  0  1  0  0  0  0  0  0  0  0
   -3.2815    4.3460    1.1359 C   0  0  0  1  0  0  0  0  0  0  0  0
   -3.4067    7.9795    0.8941 O   0  0  0  1  0  0  0  0  0  0  0  0
   -0.7900    7.5731    0.5221 O   0  0  0  1  0  0  0  0  0  0  0  0
   -1.9742    2.0913    0.4055 H   0  0  0  1  0  0  0  0  0  0  0  0
   -0.3795    2.7135    0.7579 H   0  0  0  1  0  0  0  0  0  0  0  0
   -0.0636    5.0409    0.5798 H   0  0  0  1  0  0  0  0  0  0  0  0
   -4.8013    5.8004    1.2753 H   0  0  0  1  0  0  0  0  0  0  0  0
   -3.9202    3.5399    1.2904 H   0  0  0  1  0  0  0  0  0  0  0  0
   -3.4612    8.2866   -0.0138 H   0  0  0  1  0  0  0  0  0  0  0  0
   -0.0352    7.5296    1.1136 H   0  0  0  1  0  0  0  0  0  0  0  0
  1  4  1  0  0  0  0
  2  4  1  0  0  0  0
  2  5  2  0  0  0  0
  2  6  1  0  0  0  0
  3  4  1  0  0  0  0
  3  7  1  0  0  0  0
  3  8  1  0  0  0  0
  4 19  1  0  0  0  0
  6  9  1  0  0  0  0
  6 12  1  0  0  0  0
  8 10  1  0  0  0  0
  8 11  2  0  0  0  0
  9 13  1  0  0  0  0
  9 14  1  0  0  0  0
  9 15  1  0  0  0  0
 10 16  1  0  0  0  0
 10 17  1  0  0  0  0
 10 18  1  0  0  0  0
 19 20  1  0  0  0  0
 19 28  1  0  0  0  0
 19 29  1  0  0  0  0
 20 21  4  0  0  0  0
 20 25  4  0  0  0  0
 21 22  4  0  0  0  0
 21 30  1  0  0  0  0
 22 23  4  0  0  0  0
 22 27  1  0  0  0  0
 23 24  4  0  0  0  0
 23 26  1  0  0  0  0
 24 25  4  0  0  0  0
 24 31  1  0  0  0  0
 25 32  1  0  0  0  0
 26 33  1  0  0  0  0
 27 34  1  0  0  0  0
M  END
> <BCLConfClusterSize>
1

> <ConfClashScore>
0 

> <ConfOneFourInteractionScore>
-0.960318 

> <ConfScore>
-0.241605 

> <ConfScorePBest>
0.00774839 

> <ConfTolerance>
0.169511 

> <RosettaParamsInstructions>
M  ROOT 3
M  POLY_N_BB 3
M  POLY_CA_BB 4
M  POLY_C_BB 2
M  POLY_O_BB 5
M  POLY_IGNORE 9 10 11 12 13 14 15 16 17 18 
M  POLY_UPPER 6
M  POLY_LOWER 8
M  POLY_CHG 0
M  POLY_PROPERTIES ALPHA_AA L_AA PROTEIN AROMATIC POLYMER 
M  END

$$$$



 34 34  0  0  0  0  0  0  0  0999 V2000
   -1.8002    2.6915    3.3951 H   0  0  0  1  0  0  0  0  0  0  0  0
   -0.5490    1.0456    3.0096 C   0  0  0  1  0  0  0  0  0  0  0  0
    0.0792    3.4401    3.0216 N   0  0  0  1  0  0  0  0  0  0  0  0
   -0.9779    2.4791    2.7443 C   0  0  0  1  0  0  0  0  0  0  0  0
   -1.3348    0.1850    3.3622 O   0  0  0  1  0  0  0  0  0  0  0  0
    0.7331    0.7128    2.8521 N   0  0  0  1  0  0  0  0  0  0  0  0
    0.4046    4.0086    2.2927 H   0  0  0  1  0  0  0  0  0  0  0  0
    0.6214    3.5743    4.2353 C   0  0  0  1  0  0  0  0  0  0  0  0
    1.2819   -0.6152    3.0752 C   0  0  0  1  0  0  0  0  0  0  0  0
    1.7812    4.5534    4.4026 C   0  0  0  1  0  0  0  0  0  0  0  0
    0.2424    2.9558    5.2280 O   0  0  0  1  0  0  0  0  0  0  0  0
    1.3517    1.4162    2.5643 H   0  0  0  1  0  0  0  0  0  0  0  0
    0.6037   -1.3504    2.6954 H   0  0  0  1  0  0  0  0  0  0  0  0
    1.4248   -0.7701    4.1242 H   0  0  0  1  0  0  0  0  0  0  0  0
    2.2212   -0.7021    2.5702 H   0  0  0  1  0  0  0  0  0  0  0  0
    2.4016    4.5244    3.5313 H   0  0  0  1  0  0  0  0  0  0  0  0
    2.3585    4.2787    5.2606 H   0  0  0  1  0  0  0  0  0  0  0  0
    1.3960    5.5431    4.5332 H   0  0  0  1  0  0  0  0  0  0  0  0
   -1.4756    2.6497    1.3150 C   0  0  0  1  0  0  0  0  0  0  0  0
   -1.9364    4.0626    1.0754 C   0  0  0  1  0  0  0  0  0  0  0  0
   -1.0100    5.0584    0.8077 C   0  0  0  1  0  0  0  0  0  0  0  0
   -1.4335    6.3564    0.5931 C   0  0  0  1  0  0  0  0  0  0  0  0
   -2.7848    6.6615    0.6402 C   0  0  0  1  0  0  0  0  0  0  0  0
   -3.7084    5.6685    0.9071 C   0  0  0  1  0  0  0  0  0  0  0  0
   -3.2839    4.3666    1.1224 C   0  0  0  1  0  0  0  0  0  0  0  0
   -3.1263    7.9535    0.4148 O   0  0  0  1  0  0  0  0  0  0  0  0
   -0.6021    7.3940    0.3304 O   0  0  0  1  0  0  0  0  0  0  0  0
   -2.2933    1.9805    1.1460 H   0  0  0  1  0  0  0  0  0  0  0  0
   -0.6803    2.4203    0.6369 H   0  0  0  1  0  0  0  0  0  0  0  0
    0.0036    4.8288    0.7684 H   0  0  0  1  0  0  0  0  0  0  0  0
   -4.7219    5.8982    0.9464 H   0  0  0  1  0  0  0  0  0  0  0  0
   -3.9792    3.6187    1.3192 H   0  0  0  1  0  0  0  0  0  0  0  0
   -3.5614    8.3103    1.1925 H   0  0  0  1  0  0  0  0  0  0  0  0
   -0.8593    8.1526    0.8595 H   0  0  0  1  0  0  0  0  0  0  0  0
  1  4  1  0  0  0  0
  2  4  1  0  0  0  0
  2  5  2  0  0  0  0
  2  6  1  0  0  0  0
  3  4  1  0  0  0  0
  3  7  1  0  0  0  0
  3  8  1  0  0  0  0
  4 19  1  0  0  0  0
  6  9  1  0  0  0  0
  6 12  1  0  0  0  0
  8 10  1  0  0  0  0
  8 11  2  0  0  0  0
  9 13  1  0  0  0  0
  9 14  1  0  0  0  0
  9 15  1  0  0  0  0
 10 16  1  0  0  0  0
 10 17  1  0  0  0  0
 10 18  1  0  0  0  0
 19 20  1  0  0  0  0
 19 28  1  0  0  0  0
 19 29  1  0  0  0  0
 20 21  4  0  0  0  0
 20 25  4  0  0  0  0
 21 22  4  0  0  0  0
 21 30  1  0  0  0  0
 22 23  4  0  0  0  0
 22 27  1  0  0  0  0
 23 24  4  0  0  0  0
 23 26  1  0  0  0  0
 24 25  4  0  0  0  0
 24 31  1  0  0  0  0
 25 32  1  0  0  0  0
 26 33  1  0  0  0  0
 27 34  1  0  0  0  0
M  END
> <BCLConfClusterSize>
1

> <ConfClashScore>
0 

> <ConfOneFourInteractionScore>
-0.960318 

> <ConfScore>
-0.240084 

> <ConfScorePBest>
0.00771991 

> <ConfTolerance>
0.204245 

> <RosettaParamsInstructions>
M  ROOT 3
M  POLY_N_BB 3
M  POLY_CA_BB 4
M  POLY_C_BB 2
M  POLY_O_BB 5
M  POLY_IGNORE 9 10 11 12 13 14 15 16 17 18 
M  POLY_UPPER 6
M  POLY_LOWER 8
M  POLY_CHG 0
M  POLY_PROPERTIES ALPHA_AA L_AA PROTEIN AROMATIC POLYMER 
M  END

$$$$



 34 34  0  0  0  0  0  0  0  0999 V2000
   -0.7443    2.5270   -0.7422 H   0  0  0  1  0  0  0  0  0  0  0  0
   -0.4610    0.6340    0.1480 C   0  0  0  1  0  0  0  0  0  0  0  0
   -2.5718    1.5686   -0.6289 N   0  0  0  1  0  0  0  0  0  0  0  0
   -1.2747    1.8966   -0.0594 C   0  0  0  1  0  0  0  0  0  0  0  0
   -1.0096   -0.4644    0.2267 O   0  0  0  1  0  0  0  0  0  0  0  0
    0.8729    0.7513    0.2427 N   0  0  0  1  0  0  0  0  0  0  0  0
   -3.2260    1.1319   -0.0444 H   0  0  0  1  0  0  0  0  0  0  0  0
   -2.9389    1.8177   -1.8892 C   0  0  0  1  0  0  0  0  0  0  0  0
    1.7446   -0.4017    0.4116 C   0  0  0  1  0  0  0  0  0  0  0  0
   -4.4182    1.6899   -2.1966 C   0  0  0  1  0  0  0  0  0  0  0  0
   -2.1446    2.2094   -2.7428 O   0  0  0  1  0  0  0  0  0  0  0  0
    1.2736    1.6445    0.1965 H   0  0  0  1  0  0  0  0  0  0  0  0
    1.2663   -1.2724    0.0142 H   0  0  0  1  0  0  0  0  0  0  0  0
    1.9439   -0.5483    1.4526 H   0  0  0  1  0  0  0  0  0  0  0  0
    2.6646   -0.2321   -0.1077 H   0  0  0  1  0  0  0  0  0  0  0  0
   -4.9808    2.2625   -1.4892 H   0  0  0  1  0  0  0  0  0  0  0  0
   -4.7078    0.6617   -2.1338 H   0  0  0  1  0  0  0  0  0  0  0  0
   -4.6099    2.0553   -3.1839 H   0  0  0  1  0  0  0  0  0  0  0  0
   -1.4336    2.6571    1.2603 C   0  0  0  1  0  0  0  0  0  0  0  0
   -1.9471    4.0598    1.0744 C   0  0  0  1  0  0  0  0  0  0  0  0
   -1.0156    5.0755    0.9256 C   0  0  0  1  0  0  0  0  0  0  0  0
   -1.4376    6.3809    0.7574 C   0  0  0  1  0  0  0  0  0  0  0  0
   -2.7923    6.6737    0.7322 C   0  0  0  1  0  0  0  0  0  0  0  0
   -3.7209    5.6609    0.8806 C   0  0  0  1  0  0  0  0  0  0  0  0
   -3.2979    4.3517    1.0492 C   0  0  0  1  0  0  0  0  0  0  0  0
   -3.2543    7.9367    0.5648 O   0  0  0  1  0  0  0  0  0  0  0  0
   -0.5653    7.4080    0.6132 O   0  0  0  1  0  0  0  0  0  0  0  0
   -0.4797    2.7048    1.7428 H   0  0  0  1  0  0  0  0  0  0  0  0
   -2.1215    2.1220    1.8810 H   0  0  0  1  0  0  0  0  0  0  0  0
    0.0008    4.8554    0.9405 H   0  0  0  1  0  0  0  0  0  0  0  0
   -4.7372    5.8811    0.8657 H   0  0  0  1  0  0  0  0  0  0  0  0
   -3.9968    3.5891    1.1569 H   0  0  0  1  0  0  0  0  0  0  0  0
   -3.3270    8.3673    1.4197 H   0  0  0  1  0  0  0  0  0  0  0  0
   -0.9545    8.0826    0.0520 H   0  0  0  1  0  0  0  0  0  0  0  0
  1  4  1  0  0  0  0
  2  4  1  0  0  0  0
  2  5  2  0  0  0  0
  2  6  1  0  0  0  0
  3  4  1  0  0  0  0
  3  7  1  0  0  0  0
  3  8  1  0  0  0  0
  4 19  1  0  0  0  0
  6  9  1  0  0  0  0
  6 12  1  0  0  0  0
  8 10  1  0  0  0  0
  8 11  2  0  0  0  0
  9 13  1  0  0  0  0
  9 14  1  0  0  0  0
  9 15  1  0  0  0  0
 10 16  1  0  0  0  0
 10 17  1  0  0  0  0
 10 18  1  0  0  0  0
 19 20  1  0  0  0  0
 19 28  1  0  0  0  0
 19 29  1  0  0  0  0
 20 21  4  0  0  0  0
 20 25  4  0  0  0  0
 21 22  4  0  0  0  0
 21 30  1  0  0  0  0
 22 23  4  0  0  0  0
 22 27  1  0  0  0  0
 23 24  4  0  0  0  0
 23 26  1  0  0  0  0
 24 25  4  0  0  0  0
 24 31  1  0  0  0  0
 25 32  1  0  0  0  0
 26 33  1  0  0  0  0
 27 34  1  0  0  0  0
M  END
> <BCLConfClusterSize>
1

> <ConfClashScore>
0 

> <ConfOneFourInteractionScore>
-0.981931 

> <ConfScore>
-0.231671 

> <ConfScorePBest>
0.00769143 

> <ConfTolerance>
0.219925 

> <RosettaParamsInstructions>
M  ROOT 3
M  POLY_N_BB 3
M  POLY_CA_BB 4
M  POLY_C_BB 2
M  POLY_O_BB 5
M  POLY_IGNORE 9 10 11 12 13 14 15 16 17 18 
M  POLY_UPPER 6
M  POLY_LOWER 8
M  POLY_CHG 0
M  POLY_PROPERTIES ALPHA_AA L_AA PROTEIN AROMATIC POLYMER 
M  END

$$$$



 34 34  0  0  0  0  0  0  0  0999 V2000
   -1.7662    2.2449    3.0143 H   0  0  0  1  0  0  0  0  0  0  0  0
   -0.7285    0.5903    2.2169 C   0  0  0  1  0  0  0  0  0  0  0  0
    0.2100    2.7608    2.7454 N   0  0  0  1  0  0  0  0  0  0  0  0
   -0.9971    2.0895    2.2868 C   0  0  0  1  0  0  0  0  0  0  0  0
    0.3193    0.1508    1.7451 O   0  0  0  1  0  0  0  0  0  0  0  0
   -1.6964   -0.1958    2.6966 N   0  0  0  1  0  0  0  0  0  0  0  0
    1.0201    2.6703    2.2014 H   0  0  0  1  0  0  0  0  0  0  0  0
    0.2848    3.4997    3.8717 C   0  0  0  1  0  0  0  0  0  0  0  0
   -1.6583   -1.6446    2.5644 C   0  0  0  1  0  0  0  0  0  0  0  0
    1.5925    4.2040    4.1767 C   0  0  0  1  0  0  0  0  0  0  0  0
   -0.6766    3.6006    4.6293 O   0  0  0  1  0  0  0  0  0  0  0  0
   -2.4586    0.2176    3.1534 H   0  0  0  1  0  0  0  0  0  0  0  0
   -0.6447   -1.9658    2.4448 H   0  0  0  1  0  0  0  0  0  0  0  0
   -2.2290   -1.9395    1.7087 H   0  0  0  1  0  0  0  0  0  0  0  0
   -2.0733   -2.0936    3.4425 H   0  0  0  1  0  0  0  0  0  0  0  0
    2.3997    3.5053    4.1044 H   0  0  0  1  0  0  0  0  0  0  0  0
    1.5577    4.6070    5.1673 H   0  0  0  1  0  0  0  0  0  0  0  0
    1.7430    4.9965    3.4737 H   0  0  0  1  0  0  0  0  0  0  0  0
   -1.4827    2.6720    0.9804 C   0  0  0  1  0  0  0  0  0  0  0  0
   -1.9363    4.1074    0.9841 C   0  0  0  1  0  0  0  0  0  0  0  0
   -1.0042    5.1296    0.8946 C   0  0  0  1  0  0  0  0  0  0  0  0
   -1.4211    6.4473    0.9034 C   0  0  0  1  0  0  0  0  0  0  0  0
   -2.7713    6.7467    0.9963 C   0  0  0  1  0  0  0  0  0  0  0  0
   -3.7005    5.7274    1.0855 C   0  0  0  1  0  0  0  0  0  0  0  0
   -3.2826    4.4057    1.0767 C   0  0  0  1  0  0  0  0  0  0  0  0
   -3.2285    8.0225    1.0035 O   0  0  0  1  0  0  0  0  0  0  0  0
   -0.4905    7.4290    0.8201 O   0  0  0  1  0  0  0  0  0  0  0  0
   -2.3083    2.0762    0.6514 H   0  0  0  1  0  0  0  0  0  0  0  0
   -0.6811    2.5914    0.2763 H   0  0  0  1  0  0  0  0  0  0  0  0
    0.0085    4.9049    0.8208 H   0  0  0  1  0  0  0  0  0  0  0  0
   -4.7132    5.9521    1.1593 H   0  0  0  1  0  0  0  0  0  0  0  0
   -3.9822    3.6387    1.1398 H   0  0  0  1  0  0  0  0  0  0  0  0
   -4.0551    8.0694    0.5176 H   0  0  0  1  0  0  0  0  0  0  0  0
   -0.4194    7.7268   -0.0898 H   0  0  0  1  0  0  0  0  0  0  0  0
  1  4  1  0  0  0  0
  2  4  1  0  0  0  0
  2  5  2  0  0  0  0
  2  6  1  0  0  0  0
  3  4  1  0  0  0  0
  3  7  1  0  0  0  0
  3  8  1  0  0  0  0
  4 19  1  0  0  0  0
  6  9  1  0  0  0  0
  6 12  1  0  0  0  0
  8 10  1  0  0  0  0
  8 11  2  0  0  0  0
  9 13  1  0  0  0  0
  9 14  1  0  0  0  0
  9 15  1  0  0  0  0
 10 16  1  0  0  0  0
 10 17  1  0  0  0  0
 10 18  1  0  0  0  0
 19 20  1  0  0  0  0
 19 28  1  0  0  0  0
 19 29  1  0  0  0  0
 20 21  4  0  0  0  0
 20 25  4  0  0  0  0
 21 22  4  0  0  0  0
 21 30  1  0  0  0  0
 22 23  4  0  0  0  0
 22 27  1  0  0  0  0
 23 24  4  0  0  0  0
 23 26  1  0  0  0  0
 24 25  4  0  0  0  0
 24 31  1  0  0  0  0
 25 32  1  0  0  0  0
 26 33  1  0  0  0  0
 27 34  1  0  0  0  0
M  END
> <BCLConfClusterSize>
1

> <ConfClashScore>
0 

> <ConfOneFourInteractionScore>
-0.986627 

> <ConfScore>
-0.230783 

> <ConfScorePBest>
0.00766295 

> <ConfTolerance>
0.19188 

> <RosettaParamsInstructions>
M  ROOT 3
M  POLY_N_BB 3
M  POLY_CA_BB 4
M  POLY_C_BB 2
M  POLY_O_BB 5
M  POLY_IGNORE 9 10 11 12 13 14 15 16 17 18 
M  POLY_UPPER 6
M  POLY_LOWER 8
M  POLY_CHG 0
M  POLY_PROPERTIES ALPHA_AA L_AA PROTEIN AROMATIC POLYMER 
M  END

$$$$



 34 34  0  0  0  0  0  0  0  0999 V2000
   -0.9030    2.4481   -0.8100 H   0  0  0  1  0  0  0  0  0  0  0  0
   -0.6300    0.5965    0.1609 C   0  0  0  1  0  0  0  0  0  0  0  0
   -2.7777    1.6927   -0.4224 N   0  0  0  1  0  0  0  0  0  0  0  0
   -1.3926    1.9044   -0.0292 C   0  0  0  1  0  0  0  0  0  0  0  0
    0.5962    0.5595    0.1024 O   0  0  0  1  0  0  0  0  0  0  0  0
   -1.3835   -0.4892    0.3922 N   0  0  0  1  0  0  0  0  0  0  0  0
   -3.4911    2.0259    0.1610 H   0  0  0  1  0  0  0  0  0  0  0  0
   -3.1104    1.0601   -1.5511 C   0  0  0  1  0  0  0  0  0  0  0  0
   -0.8042   -1.7767    0.7454 C   0  0  0  1  0  0  0  0  0  0  0  0
   -4.6002    0.7670   -1.7137 C   0  0  0  1  0  0  0  0  0  0  0  0
   -2.2924    0.6636   -2.3801 O   0  0  0  1  0  0  0  0  0  0  0  0
   -2.3579   -0.4127    0.3207 H   0  0  0  1  0  0  0  0  0  0  0  0
   -0.3442   -1.7090    1.7091 H   0  0  0  1  0  0  0  0  0  0  0  0
   -0.0685   -2.0482    0.0175 H   0  0  0  1  0  0  0  0  0  0  0  0
   -1.5741   -2.5194    0.7693 H   0  0  0  1  0  0  0  0  0  0  0  0
   -4.9120    0.0734   -0.9609 H   0  0  0  1  0  0  0  0  0  0  0  0
   -4.7771    0.3461   -2.6814 H   0  0  0  1  0  0  0  0  0  0  0  0
   -5.1554    1.6761   -1.6126 H   0  0  0  1  0  0  0  0  0  0  0  0
   -1.3325    2.7694    1.2336 C   0  0  0  1  0  0  0  0  0  0  0  0
   -1.9266    4.1388    1.0391 C   0  0  0  1  0  0  0  0  0  0  0  0
   -1.1006    5.2249    0.7948 C   0  0  0  1  0  0  0  0  0  0  0  0
   -1.6464    6.4828    0.6217 C   0  0  0  1  0  0  0  0  0  0  0  0
   -3.0200    6.6575    0.6869 C   0  0  0  1  0  0  0  0  0  0  0  0
   -3.8433    5.5745    0.9304 C   0  0  0  1  0  0  0  0  0  0  0  0
   -3.2961    4.3128    1.1042 C   0  0  0  1  0  0  0  0  0  0  0  0
   -3.4837    7.9175    0.5022 O   0  0  0  1  0  0  0  0  0  0  0  0
   -0.8799    7.5754    0.3860 O   0  0  0  1  0  0  0  0  0  0  0  0
   -0.3081    2.8804    1.5219 H   0  0  0  1  0  0  0  0  0  0  0  0
   -1.8710    2.2721    2.0130 H   0  0  0  1  0  0  0  0  0  0  0  0
   -0.0703    5.0933    0.7419 H   0  0  0  1  0  0  0  0  0  0  0  0
   -4.8736    5.7062    0.9834 H   0  0  0  1  0  0  0  0  0  0  0  0
   -3.9161    3.4973    1.2834 H   0  0  0  1  0  0  0  0  0  0  0  0
   -3.0238    8.5181    1.0933 H   0  0  0  1  0  0  0  0  0  0  0  0
   -0.0663    7.5112    0.8914 H   0  0  0  1  0  0  0  0  0  0  0  0
  1  4  1  0  0  0  0
  2  4  1  0  0  0  0
  2  5  2  0  0  0  0
  2  6  1  0  0  0  0
  3  4  1  0  0  0  0
  3  7  1  0  0  0  0
  3  8  1  0  0  0  0
  4 19  1  0  0  0  0
  6  9  1  0  0  0  0
  6 12  1  0  0  0  0
  8 10  1  0  0  0  0
  8 11  2  0  0  0  0
  9 13  1  0  0  0  0
  9 14  1  0  0  0  0
  9 15  1  0  0  0  0
 10 16  1  0  0  0  0
 10 17  1  0  0  0  0
 10 18  1  0  0  0  0
 19 20  1  0  0  0  0
 19 28  1  0  0  0  0
 19 29  1  0  0  0  0
 20 21  4  0  0  0  0
 20 25  4  0  0  0  0
 21 22  4  0  0  0  0
 21 30  1  0  0  0  0
 22 23  4  0  0  0  0
 22 27  1  0  0  0  0
 23 24  4  0  0  0  0
 23 26  1  0  0  0  0
 24 25  4  0  0  0  0
 24 31  1  0  0  0  0
 25 32  1  0  0  0  0
 26 33  1  0  0  0  0
 27 34  1  0  0  0  0
M  END
> <BCLConfClusterSize>
1

> <ConfClashScore>
0 

> <ConfOneFourInteractionScore>
-0.960318 

> <ConfScore>
-0.229847 

> <ConfScorePBest>
0.00763447 

> <ConfTolerance>
0.184101 

> <RosettaParamsInstructions>
M  ROOT 3
M  POLY_N_BB 3
M  POLY_CA_BB 4
M  POLY_C_BB 2
M  POLY_O_BB 5
M  POLY_IGNORE 9 10 11 12 13 14 15 16 17 18 
M  POLY_UPPER 6
M  POLY_LOWER 8
M  POLY_CHG 0
M  POLY_PROPERTIES ALPHA_AA L_AA PROTEIN AROMATIC POLYMER 
M  END

$$$$



 34 34  0  0  0  0  0  0  0  0999 V2000
   -0.4435    2.9055   -0.6668 H   0  0  0  1  0  0  0  0  0  0  0  0
    0.0642    1.0007   -0.0203 C   0  0  0  1  0  0  0  0  0  0  0  0
   -2.1055    1.7510   -0.9645 N   0  0  0  1  0  0  0  0  0  0  0  0
   -0.9455    2.1264   -0.1321 C   0  0  0  1  0  0  0  0  0  0  0  0
    1.2688    1.2297    0.0494 O   0  0  0  1  0  0  0  0  0  0  0  0
   -0.4461   -0.2408   -0.0034 N   0  0  0  1  0  0  0  0  0  0  0  0
   -3.0000    1.7088   -0.5662 H   0  0  0  1  0  0  0  0  0  0  0  0
   -1.9378    1.4673   -2.2651 C   0  0  0  1  0  0  0  0  0  0  0  0
    0.2855   -1.4957    0.0860 C   0  0  0  1  0  0  0  0  0  0  0  0
   -3.1811    1.0163   -3.0066 C   0  0  0  1  0  0  0  0  0  0  0  0
   -0.8543    1.5611   -2.8357 O   0  0  0  1  0  0  0  0  0  0  0  0
   -1.4222   -0.3100   -0.0575 H   0  0  0  1  0  0  0  0  0  0  0  0
    1.2395   -1.3874   -0.3864 H   0  0  0  1  0  0  0  0  0  0  0  0
   -0.2696   -2.2676   -0.4048 H   0  0  0  1  0  0  0  0  0  0  0  0
    0.4245   -1.7547    1.1148 H   0  0  0  1  0  0  0  0  0  0  0  0
   -3.8495    1.8442   -3.1199 H   0  0  0  1  0  0  0  0  0  0  0  0
   -3.6656    0.2405   -2.4513 H   0  0  0  1  0  0  0  0  0  0  0  0
   -2.9057    0.6459   -3.9720 H   0  0  0  1  0  0  0  0  0  0  0  0
   -1.3674    2.7593    1.1976 C   0  0  0  1  0  0  0  0  0  0  0  0
   -1.9248    4.1486    1.0389 C   0  0  0  1  0  0  0  0  0  0  0  0
   -1.0675    5.2252    0.8734 C   0  0  0  1  0  0  0  0  0  0  0  0
   -1.5799    6.5012    0.7331 C   0  0  0  1  0  0  0  0  0  0  0  0
   -2.9510    6.7036    0.7524 C   0  0  0  1  0  0  0  0  0  0  0  0
   -3.8057    5.6301    0.9174 C   0  0  0  1  0  0  0  0  0  0  0  0
   -3.2920    4.3503    1.0582 C   0  0  0  1  0  0  0  0  0  0  0  0
   -3.3809    7.9803    0.6038 O   0  0  0  1  0  0  0  0  0  0  0  0
   -0.7822    7.5852    0.5741 O   0  0  0  1  0  0  0  0  0  0  0  0
   -0.5120    2.8067    1.8387 H   0  0  0  1  0  0  0  0  0  0  0  0
   -2.1164    2.1410    1.6466 H   0  0  0  1  0  0  0  0  0  0  0  0
   -0.0389    5.0729    0.8549 H   0  0  0  1  0  0  0  0  0  0  0  0
   -4.8343    5.7824    0.9359 H   0  0  0  1  0  0  0  0  0  0  0  0
   -3.9353    3.5420    1.1783 H   0  0  0  1  0  0  0  0  0  0  0  0
   -3.5356    8.3689    1.4679 H   0  0  0  1  0  0  0  0  0  0  0  0
    0.0162    7.3298    0.1064 H   0  0  0  1  0  0  0  0  0  0  0  0
  1  4  1  0  0  0  0
  2  4  1  0  0  0  0
  2  5  2  0  0  0  0
  2  6  1  0  0  0  0
  3  4  1  0  0  0  0
  3  7  1  0  0  0  0
  3  8  1  0  0  0  0
  4 19  1  0  0  0  0
  6  9  1  0  0  0  0
  6 12  1  0  0  0  0
  8 10  1  0  0  0  0
  8 11  2  0  0  0  0
  9 13  1  0  0  0  0
  9 14  1  0  0  0  0
  9 15  1  0  0  0  0
 10 16  1  0  0  0  0
 10 17  1  0  0  0  0
 10 18  1  0  0  0  0
 19 20  1  0  0  0  0
 19 28  1  0  0  0  0
 19 29  1  0  0  0  0
 20 21  4  0  0  0  0
 20 25  4  0  0  0  0
 21 22  4  0  0  0  0
 21 30  1  0  0  0  0
 22 23  4  0  0  0  0
 22 27  1  0  0  0  0
 23 24  4  0  0  0  0
 23 26  1  0  0  0  0
 24 25  4  0  0  0  0
 24 31  1  0  0  0  0
 25 32  1  0  0  0  0
 26 33  1  0  0  0  0
 27 34  1  0  0  0  0
M  END
> <BCLConfClusterSize>
1

> <ConfClashScore>
0 

> <ConfOneFourInteractionScore>
-0.948581 

> <ConfScore>
-0.228902 

> <ConfScorePBest>
0.00760599 

> <ConfTolerance>
0.223962 

> <RosettaParamsInstructions>
M  ROOT 3
M  POLY_N_BB 3
M  POLY_CA_BB 4
M  POLY_C_BB 2
M  POLY_O_BB 5
M  POLY_IGNORE 9 10 11 12 13 14 15 16 17 18 
M  POLY_UPPER 6
M  POLY_LOWER 8
M  POLY_CHG 0
M  POLY_PROPERTIES ALPHA_AA L_AA PROTEIN AROMATIC POLYMER 
M  END

$$$$



 34 34  0  0  0  0  0  0  0  0999 V2000
    0.3206    2.8267    0.0276 H   0  0  0  1  0  0  0  0  0  0  0  0
   -0.2225    0.8031    0.2632 C   0  0  0  1  0  0  0  0  0  0  0  0
   -1.3556    2.5135   -1.1372 N   0  0  0  1  0  0  0  0  0  0  0  0
   -0.5874    2.2625    0.0730 C   0  0  0  1  0  0  0  0  0  0  0  0
    0.8439    0.4744    0.7762 O   0  0  0  1  0  0  0  0  0  0  0  0
   -1.1337   -0.0862   -0.1623 N   0  0  0  1  0  0  0  0  0  0  0  0
   -2.2674    2.8630   -1.0547 H   0  0  0  1  0  0  0  0  0  0  0  0
   -0.8560    2.2819   -2.3690 C   0  0  0  1  0  0  0  0  0  0  0  0
   -0.9590   -1.5214    0.0092 C   0  0  0  1  0  0  0  0  0  0  0  0
   -1.6990    2.6768   -3.5659 C   0  0  0  1  0  0  0  0  0  0  0  0
    0.2486    1.7665   -2.5190 O   0  0  0  1  0  0  0  0  0  0  0  0
   -1.9447    0.2422   -0.6038 H   0  0  0  1  0  0  0  0  0  0  0  0
    0.0776   -1.7395    0.1604 H   0  0  0  1  0  0  0  0  0  0  0  0
   -1.3063   -2.0299   -0.8659 H   0  0  0  1  0  0  0  0  0  0  0  0
   -1.5199   -1.8497    0.8592 H   0  0  0  1  0  0  0  0  0  0  0  0
   -2.7196    2.4093   -3.3879 H   0  0  0  1  0  0  0  0  0  0  0  0
   -1.3433    2.1662   -4.4364 H   0  0  0  1  0  0  0  0  0  0  0  0
   -1.6289    3.7336   -3.7181 H   0  0  0  1  0  0  0  0  0  0  0  0
   -1.3785    2.7459    1.2886 C   0  0  0  1  0  0  0  0  0  0  0  0
   -1.9248    4.1289    1.0543 C   0  0  0  1  0  0  0  0  0  0  0  0
   -1.0624    5.1763    0.7696 C   0  0  0  1  0  0  0  0  0  0  0  0
   -1.5643    6.4469    0.5599 C   0  0  0  1  0  0  0  0  0  0  0  0
   -2.9302    6.6729    0.6289 C   0  0  0  1  0  0  0  0  0  0  0  0
   -3.7898    5.6286    0.9128 C   0  0  0  1  0  0  0  0  0  0  0  0
   -3.2867    4.3542    1.1232 C   0  0  0  1  0  0  0  0  0  0  0  0
   -3.4695    7.8995    0.4257 O   0  0  0  1  0  0  0  0  0  0  0  0
   -0.7612    7.5030    0.2838 O   0  0  0  1  0  0  0  0  0  0  0  0
   -0.7339    2.7633    2.1424 H   0  0  0  1  0  0  0  0  0  0  0  0
   -2.1912    2.0735    1.4683 H   0  0  0  1  0  0  0  0  0  0  0  0
   -0.0380    5.0060    0.7138 H   0  0  0  1  0  0  0  0  0  0  0  0
   -4.8142    5.7989    0.9686 H   0  0  0  1  0  0  0  0  0  0  0  0
   -3.9339    3.5676    1.3329 H   0  0  0  1  0  0  0  0  0  0  0  0
   -3.3874    8.4224    1.2267 H   0  0  0  1  0  0  0  0  0  0  0  0
   -0.1383    7.6287    1.0035 H   0  0  0  1  0  0  0  0  0  0  0  0
  1  4  1  0  0  0  0
  2  4  1  0  0  0  0
  2  5  2  0  0  0  0
  2  6  1  0  0  0  0
  3  4  1  0  0  0  0
  3  7  1  0  0  0  0
  3  8  1  0  0  0  0
  4 19  1  0  0  0  0
  6  9  1  0  0  0  0
  6 12  1  0  0  0  0
  8 10  1  0  0  0  0
  8 11  2  0  0  0  0
  9 13  1  0  0  0  0
  9 14  1  0  0  0  0
  9 15  1  0  0  0  0
 10 16  1  0  0  0  0
 10 17  1  0  0  0  0
 10 18  1  0  0  0  0
 19 20  1  0  0  0  0
 19 28  1  0  0  0  0
 19 29  1  0  0  0  0
 20 21  4  0  0  0  0
 20 25  4  0  0  0  0
 21 22  4  0  0  0  0
 21 30  1  0  0  0  0
 22 23  4  0  0  0  0
 22 27  1  0  0  0  0
 23 24  4  0  0  0  0
 23 26  1  0  0  0  0
 24 25  4  0  0  0  0
 24 31  1  0  0  0  0
 25 32  1  0  0  0  0
 26 33  1  0  0  0  0
 27 34  1  0  0  0  0
M  END
> <BCLConfClusterSize>
1

> <ConfClashScore>
0 

> <ConfOneFourInteractionScore>
-0.9468 

> <ConfScore>
-0.228074 

> <ConfScorePBest>
0.00757751 

> <ConfTolerance>
0.24326 

> <RosettaParamsInstructions>
M  ROOT 3
M  POLY_N_BB 3
M  POLY_CA_BB 4
M  POLY_C_BB 2
M  POLY_O_BB 5
M  POLY_IGNORE 9 10 11 12 13 14 15 16 17 18 
M  POLY_UPPER 6
M  POLY_LOWER 8
M  POLY_CHG 0
M  POLY_PROPERTIES ALPHA_AA L_AA PROTEIN AROMATIC POLYMER 
M  END

$$$$



 34 34  0  0  0  0  0  0  0  0999 V2000
   -1.9956    2.1462    3.0259 H   0  0  0  1  0  0  0  0  0  0  0  0
   -0.7842    0.5844    2.2600 C   0  0  0  1  0  0  0  0  0  0  0  0
   -0.0022    2.7277    3.0010 N   0  0  0  1  0  0  0  0  0  0  0  0
   -1.1387    2.0527    2.3920 C   0  0  0  1  0  0  0  0  0  0  0  0
   -1.6474   -0.2874    2.3172 O   0  0  0  1  0  0  0  0  0  0  0  0
    0.5180    0.3127    2.0795 N   0  0  0  1  0  0  0  0  0  0  0  0
    0.3605    3.5281    2.5672 H   0  0  0  1  0  0  0  0  0  0  0  0
    0.5817    2.2804    4.1667 C   0  0  0  1  0  0  0  0  0  0  0  0
    1.0287   -1.0492    2.0314 C   0  0  0  1  0  0  0  0  0  0  0  0
    1.6662    3.1498    4.7329 C   0  0  0  1  0  0  0  0  0  0  0  0
    0.2113    1.2384    4.6737 O   0  0  0  1  0  0  0  0  0  0  0  0
    1.1467    1.0575    1.9764 H   0  0  0  1  0  0  0  0  0  0  0  0
    0.3103   -1.7154    2.4615 H   0  0  0  1  0  0  0  0  0  0  0  0
    1.9433   -1.1065    2.5838 H   0  0  0  1  0  0  0  0  0  0  0  0
    1.2080   -1.3269    1.0138 H   0  0  0  1  0  0  0  0  0  0  0  0
    2.5816    2.5974    4.7746 H   0  0  0  1  0  0  0  0  0  0  0  0
    1.3936    3.4629    5.7191 H   0  0  0  1  0  0  0  0  0  0  0  0
    1.7965    4.0091    4.1087 H   0  0  0  1  0  0  0  0  0  0  0  0
   -1.4724    2.6348    1.0386 C   0  0  0  1  0  0  0  0  0  0  0  0
   -1.9454    4.0632    0.9926 C   0  0  0  1  0  0  0  0  0  0  0  0
   -1.0341    5.0897    0.7994 C   0  0  0  1  0  0  0  0  0  0  0  0
   -1.4684    6.4013    0.7626 C   0  0  0  1  0  0  0  0  0  0  0  0
   -2.8158    6.6899    0.9135 C   0  0  0  1  0  0  0  0  0  0  0  0
   -3.7242    5.6663    1.1061 C   0  0  0  1  0  0  0  0  0  0  0  0
   -3.2889    4.3508    1.1431 C   0  0  0  1  0  0  0  0  0  0  0  0
   -3.1688    7.9973    0.8611 O   0  0  0  1  0  0  0  0  0  0  0  0
   -0.5209    7.3520    0.5755 O   0  0  0  1  0  0  0  0  0  0  0  0
   -2.2431    2.0284    0.6106 H   0  0  0  1  0  0  0  0  0  0  0  0
   -0.5907    2.5699    0.4359 H   0  0  0  1  0  0  0  0  0  0  0  0
   -0.0237    4.8730    0.6822 H   0  0  0  1  0  0  0  0  0  0  0  0
   -4.7346    5.8831    1.2233 H   0  0  0  1  0  0  0  0  0  0  0  0
   -3.9731    3.5803    1.2840 H   0  0  0  1  0  0  0  0  0  0  0  0
   -3.4784    8.2105   -0.0223 H   0  0  0  1  0  0  0  0  0  0  0  0
   -0.8304    8.1876    0.9327 H   0  0  0  1  0  0  0  0  0  0  0  0
  1  4  1  0  0  0  0
  2  4  1  0  0  0  0
  2  5  2  0  0  0  0
  2  6  1  0  0  0  0
  3  4  1  0  0  0  0
  3  7  1  0  0  0  0
  3  8  1  0  0  0  0
  4 19  1  0  0  0  0
  6  9  1  0  0  0  0
  6 12  1  0  0  0  0
  8 10  1  0  0  0  0
  8 11  2  0  0  0  0
  9 13  1  0  0  0  0
  9 14  1  0  0  0  0
  9 15  1  0  0  0  0
 10 16  1  0  0  0  0
 10 17  1  0  0  0  0
 10 18  1  0  0  0  0
 19 20  1  0  0  0  0
 19 28  1  0  0  0  0
 19 29  1  0  0  0  0
 20 21  4  0  0  0  0
 20 25  4  0  0  0  0
 21 22  4  0  0  0  0
 21 30  1  0  0  0  0
 22 23  4  0  0  0  0
 22 27  1  0  0  0  0
 23 24  4  0  0  0  0
 23 26  1  0  0  0  0
 24 25  4  0  0  0  0
 24 31  1  0  0  0  0
 25 32  1  0  0  0  0
 26 33  1  0  0  0  0
 27 34  1  0  0  0  0
M  END
> <BCLConfClusterSize>
1

> <ConfClashScore>
0 

> <ConfOneFourInteractionScore>
-0.960318 

> <ConfScore>
-0.227963 

> <ConfScorePBest>
0.00754903 

> <ConfTolerance>
0.251488 

> <RosettaParamsInstructions>
M  ROOT 3
M  POLY_N_BB 3
M  POLY_CA_BB 4
M  POLY_C_BB 2
M  POLY_O_BB 5
M  POLY_IGNORE 9 10 11 12 13 14 15 16 17 18 
M  POLY_UPPER 6
M  POLY_LOWER 8
M  POLY_CHG 0
M  POLY_PROPERTIES ALPHA_AA L_AA PROTEIN AROMATIC POLYMER 
M  END

$$$$



 34 34  0  0  0  0  0  0  0  0999 V2000
   -2.4164    1.8529    2.6591 H   0  0  0  1  0  0  0  0  0  0  0  0
   -0.8171    0.5762    2.1988 C   0  0  0  1  0  0  0  0  0  0  0  0
   -0.6942    2.7975    3.2701 N   0  0  0  1  0  0  0  0  0  0  0  0
   -1.4089    1.9626    2.3161 C   0  0  0  1  0  0  0  0  0  0  0  0
   -1.5251   -0.4025    1.9656 O   0  0  0  1  0  0  0  0  0  0  0  0
    0.5041    0.4943    2.3636 N   0  0  0  1  0  0  0  0  0  0  0  0
   -0.2307    3.5972    2.9445 H   0  0  0  1  0  0  0  0  0  0  0  0
   -0.6476    2.5102    4.5806 C   0  0  0  1  0  0  0  0  0  0  0  0
    1.1647   -0.8022    2.3372 C   0  0  0  1  0  0  0  0  0  0  0  0
    0.0464    3.4944    5.5019 C   0  0  0  1  0  0  0  0  0  0  0  0
   -1.1524    1.4794    5.0236 O   0  0  0  1  0  0  0  0  0  0  0  0
    1.0310    1.3088    2.5027 H   0  0  0  1  0  0  0  0  0  0  0  0
    0.4716   -1.5623    2.6317 H   0  0  0  1  0  0  0  0  0  0  0  0
    1.9933   -0.7938    3.0141 H   0  0  0  1  0  0  0  0  0  0  0  0
    1.5149   -1.0037    1.3464 H   0  0  0  1  0  0  0  0  0  0  0  0
   -0.1548    3.2336    6.5200 H   0  0  0  1  0  0  0  0  0  0  0  0
   -0.3179    4.4817    5.3082 H   0  0  0  1  0  0  0  0  0  0  0  0
    1.1016    3.4625    5.3277 H   0  0  0  1  0  0  0  0  0  0  0  0
   -1.4672    2.6564    0.9543 C   0  0  0  1  0  0  0  0  0  0  0  0
   -1.9398    4.0840    0.9777 C   0  0  0  1  0  0  0  0  0  0  0  0
   -1.0219    5.1199    0.9009 C   0  0  0  1  0  0  0  0  0  0  0  0
   -1.4566    6.4316    0.9279 C   0  0  0  1  0  0  0  0  0  0  0  0
   -2.8107    6.7113    1.0264 C   0  0  0  1  0  0  0  0  0  0  0  0
   -3.7257    5.6783    1.1030 C   0  0  0  1  0  0  0  0  0  0  0  0
   -3.2900    4.3627    1.0759 C   0  0  0  1  0  0  0  0  0  0  0  0
   -3.1633    8.0198    1.0419 O   0  0  0  1  0  0  0  0  0  0  0  0
   -0.5396    7.4269    0.8567 O   0  0  0  1  0  0  0  0  0  0  0  0
   -2.1319    2.0988    0.3280 H   0  0  0  1  0  0  0  0  0  0  0  0
   -0.4834    2.6412    0.5337 H   0  0  0  1  0  0  0  0  0  0  0  0
   -0.0062    4.9101    0.8229 H   0  0  0  1  0  0  0  0  0  0  0  0
   -4.7413    5.8882    1.1809 H   0  0  0  1  0  0  0  0  0  0  0  0
   -3.9789    3.5855    1.1295 H   0  0  0  1  0  0  0  0  0  0  0  0
   -3.7044    8.2150    0.2733 H   0  0  0  1  0  0  0  0  0  0  0  0
   -0.6337    7.8902    0.0211 H   0  0  0  1  0  0  0  0  0  0  0  0
  1  4  1  0  0  0  0
  2  4  1  0  0  0  0
  2  5  2  0  0  0  0
  2  6  1  0  0  0  0
  3  4  1  0  0  0  0
  3  7  1  0  0  0  0
  3  8  1  0  0  0  0
  4 19  1  0  0  0  0
  6  9  1  0  0  0  0
  6 12  1  0  0  0  0
  8 10  1  0  0  0  0
  8 11  2  0  0  0  0
  9 13  1  0  0  0  0
  9 14  1  0  0  0  0
  9 15  1  0  0  0  0
 10 16  1  0  0  0  0
 10 17  1  0  0  0  0
 10 18  1  0  0  0  0
 19 20  1  0  0  0  0
 19 28  1  0  0  0  0
 19 29  1  0  0  0  0
 20 21  4  0  0  0  0
 20 25  4  0  0  0  0
 21 22  4  0  0  0  0
 21 30  1  0  0  0  0
 22 23  4  0  0  0  0
 22 27  1  0  0  0  0
 23 24  4  0  0  0  0
 23 26  1  0  0  0  0
 24 25  4  0  0  0  0
 24 31  1  0  0  0  0
 25 32  1  0  0  0  0
 26 33  1  0  0  0  0
 27 34  1  0  0  0  0
M  END
> <BCLConfClusterSize>
1

> <ConfClashScore>
0 

> <ConfOneFourInteractionScore>
-0.960318 

> <ConfScore>
-0.223809 

> <ConfScorePBest>
0.00752055 

> <ConfTolerance>
0.217709 

> <RosettaParamsInstructions>
M  ROOT 3
M  POLY_N_BB 3
M  POLY_CA_BB 4
M  POLY_C_BB 2
M  POLY_O_BB 5
M  POLY_IGNORE 9 10 11 12 13 14 15 16 17 18 
M  POLY_UPPER 6
M  POLY_LOWER 8
M  POLY_CHG 0
M  POLY_PROPERTIES ALPHA_AA L_AA PROTEIN AROMATIC POLYMER 
M  END

$$$$



 34 34  0  0  0  0  0  0  0  0999 V2000
   -0.4502    2.5670   -0.7796 H   0  0  0  1  0  0  0  0  0  0  0  0
   -0.9641    0.5825   -0.2957 C   0  0  0  1  0  0  0  0  0  0  0  0
   -2.4586    2.3543   -1.1738 N   0  0  0  1  0  0  0  0  0  0  0  0
   -1.2938    2.0687   -0.3495 C   0  0  0  1  0  0  0  0  0  0  0  0
    0.1799    0.1902   -0.0728 O   0  0  0  1  0  0  0  0  0  0  0  0
   -1.9900   -0.2475   -0.5047 N   0  0  0  1  0  0  0  0  0  0  0  0
   -3.2763    2.6777   -0.7412 H   0  0  0  1  0  0  0  0  0  0  0  0
   -2.4518    2.1894   -2.5129 C   0  0  0  1  0  0  0  0  0  0  0  0
   -1.7698   -1.6854   -0.5465 C   0  0  0  1  0  0  0  0  0  0  0  0
   -3.7474    2.4204   -3.2661 C   0  0  0  1  0  0  0  0  0  0  0  0
   -1.4260    1.8613   -3.1076 O   0  0  0  1  0  0  0  0  0  0  0  0
   -2.8927    0.1127   -0.6301 H   0  0  0  1  0  0  0  0  0  0  0  0
   -1.2704   -1.9964    0.3473 H   0  0  0  1  0  0  0  0  0  0  0  0
   -1.1657   -1.9290   -1.3954 H   0  0  0  1  0  0  0  0  0  0  0  0
   -2.7113   -2.1882   -0.6221 H   0  0  0  1  0  0  0  0  0  0  0  0
   -3.5759    2.3040   -4.3158 H   0  0  0  1  0  0  0  0  0  0  0  0
   -4.1017    3.4109   -3.0705 H   0  0  0  1  0  0  0  0  0  0  0  0
   -4.4789    1.7092   -2.9435 H   0  0  0  1  0  0  0  0  0  0  0  0
   -1.4927    2.6424    1.0543 C   0  0  0  1  0  0  0  0  0  0  0  0
   -1.9332    4.0802    0.9859 C   0  0  0  1  0  0  0  0  0  0  0  0
   -1.0443    5.1189    0.7568 C   0  0  0  1  0  0  0  0  0  0  0  0
   -1.5021    6.4221    0.7089 C   0  0  0  1  0  0  0  0  0  0  0  0
   -2.8508    6.6901    0.8846 C   0  0  0  1  0  0  0  0  0  0  0  0
   -3.7369    5.6543    1.1130 C   0  0  0  1  0  0  0  0  0  0  0  0
   -3.2780    4.3472    1.1611 C   0  0  0  1  0  0  0  0  0  0  0  0
   -3.2275    7.9903    0.8194 O   0  0  0  1  0  0  0  0  0  0  0  0
   -0.6129    7.4209    0.4887 O   0  0  0  1  0  0  0  0  0  0  0  0
   -0.5691    2.5837    1.5915 H   0  0  0  1  0  0  0  0  0  0  0  0
   -2.2395    2.0706    1.5644 H   0  0  0  1  0  0  0  0  0  0  0  0
   -0.0331    4.9176    0.6209 H   0  0  0  1  0  0  0  0  0  0  0  0
   -4.7481    5.8557    1.2488 H   0  0  0  1  0  0  0  0  0  0  0  0
   -3.9454    3.5675    1.3290 H   0  0  0  1  0  0  0  0  0  0  0  0
   -3.4221    8.2223   -0.0916 H   0  0  0  1  0  0  0  0  0  0  0  0
   -0.6522    8.0503    1.2126 H   0  0  0  1  0  0  0  0  0  0  0  0
  1  4  1  0  0  0  0
  2  4  1  0  0  0  0
  2  5  2  0  0  0  0
  2  6  1  0  0  0  0
  3  4  1  0  0  0  0
  3  7  1  0  0  0  0
  3  8  1  0  0  0  0
  4 19  1  0  0  0  0
  6  9  1  0  0  0  0
  6 12  1  0  0  0  0
  8 10  1  0  0  0  0
  8 11  2  0  0  0  0
  9 13  1  0  0  0  0
  9 14  1  0  0  0  0
  9 15  1  0  0  0  0
 10 16  1  0  0  0  0
 10 17  1  0  0  0  0
 10 18  1  0  0  0  0
 19 20  1  0  0  0  0
 19 28  1  0  0  0  0
 19 29  1  0  0  0  0
 20 21  4  0  0  0  0
 20 25  4  0  0  0  0
 21 22  4  0  0  0  0
 21 30  1  0  0  0  0
 22 23  4  0  0  0  0
 22 27  1  0  0  0  0
 23 24  4  0  0  0  0
 23 26  1  0  0  0  0
 24 25  4  0  0  0  0
 24 31  1  0  0  0  0
 25 32  1  0  0  0  0
 26 33  1  0  0  0  0
 27 34  1  0  0  0  0
M  END
> <BCLConfClusterSize>
1

> <ConfClashScore>
0 

> <ConfOneFourInteractionScore>
-0.94165 

> <ConfScore>
-0.222734 

> <ConfScorePBest>
0.00749207 

> <ConfTolerance>
0.221511 

> <RosettaParamsInstructions>
M  ROOT 3
M  POLY_N_BB 3
M  POLY_CA_BB 4
M  POLY_C_BB 2
M  POLY_O_BB 5
M  POLY_IGNORE 9 10 11 12 13 14 15 16 17 18 
M  POLY_UPPER 6
M  POLY_LOWER 8
M  POLY_CHG 0
M  POLY_PROPERTIES ALPHA_AA L_AA PROTEIN AROMATIC POLYMER 
M  END

$$$$



 34 34  0  0  0  0  0  0  0  0999 V2000
   -0.8515    2.7881   -1.0053 H   0  0  0  1  0  0  0  0  0  0  0  0
   -0.7695    0.7408   -0.5583 C   0  0  0  1  0  0  0  0  0  0  0  0
   -2.7916    2.0723   -0.9618 N   0  0  0  1  0  0  0  0  0  0  0  0
   -1.4212    2.1023   -0.4137 C   0  0  0  1  0  0  0  0  0  0  0  0
    0.4461    0.6271   -0.6920 O   0  0  0  1  0  0  0  0  0  0  0  0
   -1.5993   -0.3059   -0.5300 N   0  0  0  1  0  0  0  0  0  0  0  0
   -3.5487    2.1783   -0.3486 H   0  0  0  1  0  0  0  0  0  0  0  0
   -3.0357    1.9057   -2.2648 C   0  0  0  1  0  0  0  0  0  0  0  0
   -1.1218   -1.6787   -0.6018 C   0  0  0  1  0  0  0  0  0  0  0  0
   -4.4962    1.9403   -2.6710 C   0  0  0  1  0  0  0  0  0  0  0  0
   -2.1455    1.7340   -3.0965 O   0  0  0  1  0  0  0  0  0  0  0  0
   -2.5631   -0.1435   -0.4585 H   0  0  0  1  0  0  0  0  0  0  0  0
   -0.2779   -1.7295   -1.2576 H   0  0  0  1  0  0  0  0  0  0  0  0
   -1.9020   -2.3084   -0.9755 H   0  0  0  1  0  0  0  0  0  0  0  0
   -0.8345   -2.0076    0.3750 H   0  0  0  1  0  0  0  0  0  0  0  0
   -4.8246    0.9499   -2.9079 H   0  0  0  1  0  0  0  0  0  0  0  0
   -4.6127    2.5691   -3.5289 H   0  0  0  1  0  0  0  0  0  0  0  0
   -5.0818    2.3263   -1.8630 H   0  0  0  1  0  0  0  0  0  0  0  0
   -1.4457    2.6499    1.0039 C   0  0  0  1  0  0  0  0  0  0  0  0
   -1.9387    4.0722    1.0182 C   0  0  0  1  0  0  0  0  0  0  0  0
   -1.0570    5.1211    0.8089 C   0  0  0  1  0  0  0  0  0  0  0  0
   -1.5299    6.4180    0.7405 C   0  0  0  1  0  0  0  0  0  0  0  0
   -2.8864    6.6693    0.8758 C   0  0  0  1  0  0  0  0  0  0  0  0
   -3.7653    5.6234    1.0844 C   0  0  0  1  0  0  0  0  0  0  0  0
   -3.2913    4.3226    1.1531 C   0  0  0  1  0  0  0  0  0  0  0  0
   -3.3262    7.9490    0.7997 O   0  0  0  1  0  0  0  0  0  0  0  0
   -0.6097    7.3925    0.5393 O   0  0  0  1  0  0  0  0  0  0  0  0
   -0.4561    2.6176    1.4097 H   0  0  0  1  0  0  0  0  0  0  0  0
   -2.0968    2.0469    1.6017 H   0  0  0  1  0  0  0  0  0  0  0  0
   -0.0397    4.9323    0.7034 H   0  0  0  1  0  0  0  0  0  0  0  0
   -4.7826    5.8123    1.1899 H   0  0  0  1  0  0  0  0  0  0  0  0
   -3.9532    3.5352    1.3061 H   0  0  0  1  0  0  0  0  0  0  0  0
   -3.0415    8.3369   -0.0310 H   0  0  0  1  0  0  0  0  0  0  0  0
   -0.8121    8.1450    1.0999 H   0  0  0  1  0  0  0  0  0  0  0  0
  1  4  1  0  0  0  0
  2  4  1  0  0  0  0
  2  5  2  0  0  0  0
  2  6  1  0  0  0  0
  3  4  1  0  0  0  0
  3  7  1  0  0  0  0
  3  8  1  0  0  0  0
  4 19  1  0  0  0  0
  6  9  1  0  0  0  0
  6 12  1  0  0  0  0
  8 10  1  0  0  0  0
  8 11  2  0  0  0  0
  9 13  1  0  0  0  0
  9 14  1  0  0  0  0
  9 15  1  0  0  0  0
 10 16  1  0  0  0  0
 10 17  1  0  0  0  0
 10 18  1  0  0  0  0
 19 20  1  0  0  0  0
 19 28  1  0  0  0  0
 19 29  1  0  0  0  0
 20 21  4  0  0  0  0
 20 25  4  0  0  0  0
 21 22  4  0  0  0  0
 21 30  1  0  0  0  0
 22 23  4  0  0  0  0
 22 27  1  0  0  0  0
 23 24  4  0  0  0  0
 23 26  1  0  0  0  0
 24 25  4  0  0  0  0
 24 31  1  0  0  0  0
 25 32  1  0  0  0  0
 26 33  1  0  0  0  0
 27 34  1  0  0  0  0
M  END
> <BCLConfClusterSize>
1

> <ConfClashScore>
0 

> <ConfOneFourInteractionScore>
-0.960318 

> <ConfScore>
-0.22051 

> <ConfScorePBest>
0.00746359 

> <ConfTolerance>
0.238331 

> <RosettaParamsInstructions>
M  ROOT 3
M  POLY_N_BB 3
M  POLY_CA_BB 4
M  POLY_C_BB 2
M  POLY_O_BB 5
M  POLY_IGNORE 9 10 11 12 13 14 15 16 17 18 
M  POLY_UPPER 6
M  POLY_LOWER 8
M  POLY_CHG 0
M  POLY_PROPERTIES ALPHA_AA L_AA PROTEIN AROMATIC POLYMER 
M  END

$$$$



 34 34  0  0  0  0  0  0  0  0999 V2000
   -2.1072    2.1307    2.8594 H   0  0  0  1  0  0  0  0  0  0  0  0
   -1.0674    0.4700    2.1012 C   0  0  0  1  0  0  0  0  0  0  0  0
   -0.1052    2.5534    2.9897 N   0  0  0  1  0  0  0  0  0  0  0  0
   -1.2296    1.9781    2.2667 C   0  0  0  1  0  0  0  0  0  0  0  0
   -2.0451   -0.2704    2.0041 O   0  0  0  1  0  0  0  0  0  0  0  0
    0.1968    0.0194    2.0701 N   0  0  0  1  0  0  0  0  0  0  0  0
    0.6394    2.9559    2.4958 H   0  0  0  1  0  0  0  0  0  0  0  0
   -0.0857    2.5337    4.3386 C   0  0  0  1  0  0  0  0  0  0  0  0
    0.5635   -1.3716    1.8497 C   0  0  0  1  0  0  0  0  0  0  0  0
    1.1179    3.1290    5.0429 C   0  0  0  1  0  0  0  0  0  0  0  0
   -1.0159    2.0477    4.9806 O   0  0  0  1  0  0  0  0  0  0  0  0
    0.9187    0.6684    2.2043 H   0  0  0  1  0  0  0  0  0  0  0  0
   -0.1736   -2.0095    2.2909 H   0  0  0  1  0  0  0  0  0  0  0  0
    1.5158   -1.5644    2.2977 H   0  0  0  1  0  0  0  0  0  0  0  0
    0.6179   -1.5636    0.7985 H   0  0  0  1  0  0  0  0  0  0  0  0
    2.0059    2.6287    4.7172 H   0  0  0  1  0  0  0  0  0  0  0  0
    1.0081    3.0078    6.1003 H   0  0  0  1  0  0  0  0  0  0  0  0
    1.1892    4.1705    4.8082 H   0  0  0  1  0  0  0  0  0  0  0  0
   -1.4754    2.6616    0.9422 C   0  0  0  1  0  0  0  0  0  0  0  0
   -1.9380    4.0938    0.9731 C   0  0  0  1  0  0  0  0  0  0  0  0
   -1.0126    5.1233    0.9002 C   0  0  0  1  0  0  0  0  0  0  0  0
   -1.4378    6.4380    0.9340 C   0  0  0  1  0  0  0  0  0  0  0  0
   -2.7896    6.7271    1.0354 C   0  0  0  1  0  0  0  0  0  0  0  0
   -3.7121    5.7005    1.1081 C   0  0  0  1  0  0  0  0  0  0  0  0
   -3.2860    4.3818    1.0742 C   0  0  0  1  0  0  0  0  0  0  0  0
   -3.2548    7.9996    1.0670 O   0  0  0  1  0  0  0  0  0  0  0  0
   -0.5711    7.4781    0.8709 O   0  0  0  1  0  0  0  0  0  0  0  0
   -2.2205    2.0956    0.4232 H   0  0  0  1  0  0  0  0  0  0  0  0
   -0.5580    2.6333    0.3922 H   0  0  0  1  0  0  0  0  0  0  0  0
    0.0014    4.9065    0.8200 H   0  0  0  1  0  0  0  0  0  0  0  0
   -4.7261    5.9173    1.1882 H   0  0  0  1  0  0  0  0  0  0  0  0
   -3.9805    3.6094    1.1248 H   0  0  0  1  0  0  0  0  0  0  0  0
   -3.7972    8.1619    0.2916 H   0  0  0  1  0  0  0  0  0  0  0  0
   -0.4994    7.7808   -0.0373 H   0  0  0  1  0  0  0  0  0  0  0  0
  1  4  1  0  0  0  0
  2  4  1  0  0  0  0
  2  5  2  0  0  0  0
  2  6  1  0  0  0  0
  3  4  1  0  0  0  0
  3  7  1  0  0  0  0
  3  8  1  0  0  0  0
  4 19  1  0  0  0  0
  6  9  1  0  0  0  0
  6 12  1  0  0  0  0
  8 10  1  0  0  0  0
  8 11  2  0  0  0  0
  9 13  1  0  0  0  0
  9 14  1  0  0  0  0
  9 15  1  0  0  0  0
 10 16  1  0  0  0  0
 10 17  1  0  0  0  0
 10 18  1  0  0  0  0
 19 20  1  0  0  0  0
 19 28  1  0  0  0  0
 19 29  1  0  0  0  0
 20 21  4  0  0  0  0
 20 25  4  0  0  0  0
 21 22  4  0  0  0  0
 21 30  1  0  0  0  0
 22 23  4  0  0  0  0
 22 27  1  0  0  0  0
 23 24  4  0  0  0  0
 23 26  1  0  0  0  0
 24 25  4  0  0  0  0
 24 31  1  0  0  0  0
 25 32  1  0  0  0  0
 26 33  1  0  0  0  0
 27 34  1  0  0  0  0
M  END
> <BCLConfClusterSize>
1

> <ConfClashScore>
0 

> <ConfOneFourInteractionScore>
-0.960318 

> <ConfScore>
-0.220016 

> <ConfScorePBest>
0.0074351 

> <ConfTolerance>
0.193516 

> <RosettaParamsInstructions>
M  ROOT 3
M  POLY_N_BB 3
M  POLY_CA_BB 4
M  POLY_C_BB 2
M  POLY_O_BB 5
M  POLY_IGNORE 9 10 11 12 13 14 15 16 17 18 
M  POLY_UPPER 6
M  POLY_LOWER 8
M  POLY_CHG 0
M  POLY_PROPERTIES ALPHA_AA L_AA PROTEIN AROMATIC POLYMER 
M  END

$$$$



 34 34  0  0  0  0  0  0  0  0999 V2000
   -0.7596    2.7648   -0.9848 H   0  0  0  1  0  0  0  0  0  0  0  0
   -0.3173    0.8467   -0.2233 C   0  0  0  1  0  0  0  0  0  0  0  0
   -2.5232    1.7012   -0.8071 N   0  0  0  1  0  0  0  0  0  0  0  0
   -1.2083    2.0709   -0.3050 C   0  0  0  1  0  0  0  0  0  0  0  0
    0.8554    0.8939   -0.5565 O   0  0  0  1  0  0  0  0  0  0  0  0
   -0.9001   -0.2660    0.2317 N   0  0  0  1  0  0  0  0  0  0  0  0
   -3.3148    1.9405   -0.2811 H   0  0  0  1  0  0  0  0  0  0  0  0
   -2.6896    1.0441   -1.9650 C   0  0  0  1  0  0  0  0  0  0  0  0
   -0.2431   -1.5583    0.3593 C   0  0  0  1  0  0  0  0  0  0  0  0
   -4.1224    0.8966   -2.4388 C   0  0  0  1  0  0  0  0  0  0  0  0
   -1.7517    0.5837   -2.6147 O   0  0  0  1  0  0  0  0  0  0  0  0
   -1.8409   -0.2077    0.4998 H   0  0  0  1  0  0  0  0  0  0  0  0
    0.7655   -1.4154    0.6869 H   0  0  0  1  0  0  0  0  0  0  0  0
   -0.2429   -2.0533   -0.5893 H   0  0  0  1  0  0  0  0  0  0  0  0
   -0.7687   -2.1563    1.0741 H   0  0  0  1  0  0  0  0  0  0  0  0
   -4.2238    1.3324   -3.4108 H   0  0  0  1  0  0  0  0  0  0  0  0
   -4.7770    1.3950   -1.7547 H   0  0  0  1  0  0  0  0  0  0  0  0
   -4.3774   -0.1415   -2.4852 H   0  0  0  1  0  0  0  0  0  0  0  0
   -1.3160    2.7461    1.0561 C   0  0  0  1  0  0  0  0  0  0  0  0
   -1.9441    4.1124    0.9884 C   0  0  0  1  0  0  0  0  0  0  0  0
   -1.1109    5.1972    0.7636 C   0  0  0  1  0  0  0  0  0  0  0  0
   -1.6396    6.4726    0.6985 C   0  0  0  1  0  0  0  0  0  0  0  0
   -3.0034    6.6665    0.8527 C   0  0  0  1  0  0  0  0  0  0  0  0
   -3.8340    5.5848    1.0769 C   0  0  0  1  0  0  0  0  0  0  0  0
   -3.3041    4.3056    1.1422 C   0  0  0  1  0  0  0  0  0  0  0  0
   -3.4041    7.9581    0.7640 O   0  0  0  1  0  0  0  0  0  0  0  0
   -0.8651    7.5643    0.4860 O   0  0  0  1  0  0  0  0  0  0  0  0
   -0.3328    2.8432    1.4668 H   0  0  0  1  0  0  0  0  0  0  0  0
   -1.9112    2.1289    1.6962 H   0  0  0  1  0  0  0  0  0  0  0  0
   -0.0882    5.0514    0.6439 H   0  0  0  1  0  0  0  0  0  0  0  0
   -4.8567    5.7306    1.1966 H   0  0  0  1  0  0  0  0  0  0  0  0
   -3.9297    3.4912    1.3069 H   0  0  0  1  0  0  0  0  0  0  0  0
   -2.9005    8.4035    0.0788 H   0  0  0  1  0  0  0  0  0  0  0  0
   -0.2829    7.6955    1.2379 H   0  0  0  1  0  0  0  0  0  0  0  0
  1  4  1  0  0  0  0
  2  4  1  0  0  0  0
  2  5  2  0  0  0  0
  2  6  1  0  0  0  0
  3  4  1  0  0  0  0
  3  7  1  0  0  0  0
  3  8  1  0  0  0  0
  4 19  1  0  0  0  0
  6  9  1  0  0  0  0
  6 12  1  0  0  0  0
  8 10  1  0  0  0  0
  8 11  2  0  0  0  0
  9 13  1  0  0  0  0
  9 14  1  0  0  0  0
  9 15  1  0  0  0  0
 10 16  1  0  0  0  0
 10 17  1  0  0  0  0
 10 18  1  0  0  0  0
 19 20  1  0  0  0  0
 19 28  1  0  0  0  0
 19 29  1  0  0  0  0
 20 21  4  0  0  0  0
 20 25  4  0  0  0  0
 21 22  4  0  0  0  0
 21 30  1  0  0  0  0
 22 23  4  0  0  0  0
 22 27  1  0  0  0  0
 23 24  4  0  0  0  0
 23 26  1  0  0  0  0
 24 25  4  0  0  0  0
 24 31  1  0  0  0  0
 25 32  1  0  0  0  0
 26 33  1  0  0  0  0
 27 34  1  0  0  0  0
M  END
> <BCLConfClusterSize>
1

> <ConfClashScore>
0 

> <ConfOneFourInteractionScore>
-0.956443 

> <ConfScore>
-0.218932 

> <ConfScorePBest>
0.00740662 

> <ConfTolerance>
0.253351 

> <RosettaParamsInstructions>
M  ROOT 3
M  POLY_N_BB 3
M  POLY_CA_BB 4
M  POLY_C_BB 2
M  POLY_O_BB 5
M  POLY_IGNORE 9 10 11 12 13 14 15 16 17 18 
M  POLY_UPPER 6
M  POLY_LOWER 8
M  POLY_CHG 0
M  POLY_PROPERTIES ALPHA_AA L_AA PROTEIN AROMATIC POLYMER 
M  END

$$$$



 34 34  0  0  0  0  0  0  0  0999 V2000
   -2.1238    2.3755    3.0844 H   0  0  0  1  0  0  0  0  0  0  0  0
   -0.6747    0.8937    2.6468 C   0  0  0  1  0  0  0  0  0  0  0  0
   -0.2441    3.2169    3.2732 N   0  0  0  1  0  0  0  0  0  0  0  0
   -1.1764    2.3335    2.5890 C   0  0  0  1  0  0  0  0  0  0  0  0
    0.5099    0.6182    2.7028 O   0  0  0  1  0  0  0  0  0  0  0  0
   -1.5615   -0.1027    2.6358 N   0  0  0  1  0  0  0  0  0  0  0  0
    0.6888    3.2431    2.9743 H   0  0  0  1  0  0  0  0  0  0  0  0
   -0.6158    3.9935    4.2949 C   0  0  0  1  0  0  0  0  0  0  0  0
   -1.2266   -1.5170    2.7111 C   0  0  0  1  0  0  0  0  0  0  0  0
    0.4706    4.8724    4.8836 C   0  0  0  1  0  0  0  0  0  0  0  0
   -1.7519    4.0080    4.7392 O   0  0  0  1  0  0  0  0  0  0  0  0
   -2.5099    0.1355    2.5722 H   0  0  0  1  0  0  0  0  0  0  0  0
   -0.6733   -1.7058    3.6072 H   0  0  0  1  0  0  0  0  0  0  0  0
   -0.6341   -1.7886    1.8625 H   0  0  0  1  0  0  0  0  0  0  0  0
   -2.1261   -2.0963    2.7188 H   0  0  0  1  0  0  0  0  0  0  0  0
    1.2374    4.2575    5.3064 H   0  0  0  1  0  0  0  0  0  0  0  0
    0.0513    5.4945    5.6466 H   0  0  0  1  0  0  0  0  0  0  0  0
    0.8896    5.4854    4.1131 H   0  0  0  1  0  0  0  0  0  0  0  0
   -1.3813    2.7741    1.1362 C   0  0  0  1  0  0  0  0  0  0  0  0
   -1.9195    4.1747    1.0151 C   0  0  0  1  0  0  0  0  0  0  0  0
   -1.0494    5.2392    0.8379 C   0  0  0  1  0  0  0  0  0  0  0  0
   -1.5440    6.5255    0.7322 C   0  0  0  1  0  0  0  0  0  0  0  0
   -2.9102    6.7505    0.7980 C   0  0  0  1  0  0  0  0  0  0  0  0
   -3.7775    5.6891    0.9747 C   0  0  0  1  0  0  0  0  0  0  0  0
   -3.2817    4.3989    1.0808 C   0  0  0  1  0  0  0  0  0  0  0  0
   -3.3225    8.0362    0.6814 O   0  0  0  1  0  0  0  0  0  0  0  0
   -0.6345    7.5163    0.5657 O   0  0  0  1  0  0  0  0  0  0  0  0
   -2.0720    2.1024    0.6708 H   0  0  0  1  0  0  0  0  0  0  0  0
   -0.4400    2.7260    0.6297 H   0  0  0  1  0  0  0  0  0  0  0  0
   -0.0247    5.0700    0.7845 H   0  0  0  1  0  0  0  0  0  0  0  0
   -4.8023    5.8583    1.0281 H   0  0  0  1  0  0  0  0  0  0  0  0
   -3.9347    3.5998    1.2098 H   0  0  0  1  0  0  0  0  0  0  0  0
   -4.0603    8.1913    1.2757 H   0  0  0  1  0  0  0  0  0  0  0  0
    0.1635    7.1560    0.1722 H   0  0  0  1  0  0  0  0  0  0  0  0
  1  4  1  0  0  0  0
  2  4  1  0  0  0  0
  2  5  2  0  0  0  0
  2  6  1  0  0  0  0
  3  4  1  0  0  0  0
  3  7  1  0  0  0  0
  3  8  1  0  0  0  0
  4 19  1  0  0  0  0
  6  9  1  0  0  0  0
  6 12  1  0  0  0  0
  8 10  1  0  0  0  0
  8 11  2  0  0  0  0
  9 13  1  0  0  0  0
  9 14  1  0  0  0  0
  9 15  1  0  0  0  0
 10 16  1  0  0  0  0
 10 17  1  0  0  0  0
 10 18  1  0  0  0  0
 19 20  1  0  0  0  0
 19 28  1  0  0  0  0
 19 29  1  0  0  0  0
 20 21  4  0  0  0  0
 20 25  4  0  0  0  0
 21 22  4  0  0  0  0
 21 30  1  0  0  0  0
 22 23  4  0  0  0  0
 22 27  1  0  0  0  0
 23 24  4  0  0  0  0
 23 26  1  0  0  0  0
 24 25  4  0  0  0  0
 24 31  1  0  0  0  0
 25 32  1  0  0  0  0
 26 33  1  0  0  0  0
 27 34  1  0  0  0  0
M  END
> <BCLConfClusterSize>
1

> <ConfClashScore>
0 

> <ConfOneFourInteractionScore>
-0.990503 

> <ConfScore>
-0.21882 

> <ConfScorePBest>
0.00737814 

> <ConfTolerance>
0.19947 

> <RosettaParamsInstructions>
M  ROOT 3
M  POLY_N_BB 3
M  POLY_CA_BB 4
M  POLY_C_BB 2
M  POLY_O_BB 5
M  POLY_IGNORE 9 10 11 12 13 14 15 16 17 18 
M  POLY_UPPER 6
M  POLY_LOWER 8
M  POLY_CHG 0
M  POLY_PROPERTIES ALPHA_AA L_AA PROTEIN AROMATIC POLYMER 
M  END

$$$$



 34 34  0  0  0  0  0  0  0  0999 V2000
   -2.2294    2.7447    3.2329 H   0  0  0  1  0  0  0  0  0  0  0  0
   -1.1182    0.9728    3.0809 C   0  0  0  1  0  0  0  0  0  0  0  0
   -0.2503    3.2449    3.4449 N   0  0  0  1  0  0  0  0  0  0  0  0
   -1.2944    2.4570    2.7996 C   0  0  0  1  0  0  0  0  0  0  0  0
   -0.0017    0.4687    3.1679 O   0  0  0  1  0  0  0  0  0  0  0  0
   -2.2440    0.2727    3.2235 N   0  0  0  1  0  0  0  0  0  0  0  0
    0.6434    3.2391    3.0430 H   0  0  0  1  0  0  0  0  0  0  0  0
   -0.4357    3.9776    4.5544 C   0  0  0  1  0  0  0  0  0  0  0  0
   -2.1873   -1.1643    3.4512 C   0  0  0  1  0  0  0  0  0  0  0  0
    0.7649    4.7963    5.0158 C   0  0  0  1  0  0  0  0  0  0  0  0
   -1.4991    3.9995    5.1728 O   0  0  0  1  0  0  0  0  0  0  0  0
   -3.1113    0.7262    3.1749 H   0  0  0  1  0  0  0  0  0  0  0  0
   -3.0861   -1.6189    3.0899 H   0  0  0  1  0  0  0  0  0  0  0  0
   -2.0877   -1.3554    4.4993 H   0  0  0  1  0  0  0  0  0  0  0  0
   -1.3467   -1.5746    2.9318 H   0  0  0  1  0  0  0  0  0  0  0  0
    1.6677    4.3045    4.7194 H   0  0  0  1  0  0  0  0  0  0  0  0
    0.7437    4.8907    6.0814 H   0  0  0  1  0  0  0  0  0  0  0  0
    0.7257    5.7684    4.5703 H   0  0  0  1  0  0  0  0  0  0  0  0
   -1.3974    2.7382    1.3062 C   0  0  0  1  0  0  0  0  0  0  0  0
   -1.9255    4.1262    1.0597 C   0  0  0  1  0  0  0  0  0  0  0  0
   -1.0501    5.1581    0.7589 C   0  0  0  1  0  0  0  0  0  0  0  0
   -1.5352    6.4333    0.5379 C   0  0  0  1  0  0  0  0  0  0  0  0
   -2.8973    6.6793    0.6118 C   0  0  0  1  0  0  0  0  0  0  0  0
   -3.7699    5.6504    0.9117 C   0  0  0  1  0  0  0  0  0  0  0  0
   -3.2837    4.3713    1.1333 C   0  0  0  1  0  0  0  0  0  0  0  0
   -3.4205    7.9111    0.3980 O   0  0  0  1  0  0  0  0  0  0  0  0
   -0.6590    7.4265    0.2507 O   0  0  0  1  0  0  0  0  0  0  0  0
   -2.0601    2.0264    0.8601 H   0  0  0  1  0  0  0  0  0  0  0  0
   -0.4270    2.6485    0.8646 H   0  0  0  1  0  0  0  0  0  0  0  0
   -0.0284    4.9727    0.6995 H   0  0  0  1  0  0  0  0  0  0  0  0
   -4.7916    5.8357    0.9710 H   0  0  0  1  0  0  0  0  0  0  0  0
   -3.9408    3.5963    1.3550 H   0  0  0  1  0  0  0  0  0  0  0  0
   -3.5446    8.3569    1.2391 H   0  0  0  1  0  0  0  0  0  0  0  0
   -0.2353    7.7239    1.0592 H   0  0  0  1  0  0  0  0  0  0  0  0
  1  4  1  0  0  0  0
  2  4  1  0  0  0  0
  2  5  2  0  0  0  0
  2  6  1  0  0  0  0
  3  4  1  0  0  0  0
  3  7  1  0  0  0  0
  3  8  1  0  0  0  0
  4 19  1  0  0  0  0
  6  9  1  0  0  0  0
  6 12  1  0  0  0  0
  8 10  1  0  0  0  0
  8 11  2  0  0  0  0
  9 13  1  0  0  0  0
  9 14  1  0  0  0  0
  9 15  1  0  0  0  0
 10 16  1  0  0  0  0
 10 17  1  0  0  0  0
 10 18  1  0  0  0  0
 19 20  1  0  0  0  0
 19 28  1  0  0  0  0
 19 29  1  0  0  0  0
 20 21  4  0  0  0  0
 20 25  4  0  0  0  0
 21 22  4  0  0  0  0
 21 30  1  0  0  0  0
 22 23  4  0  0  0  0
 22 27  1  0  0  0  0
 23 24  4  0  0  0  0
 23 26  1  0  0  0  0
 24 25  4  0  0  0  0
 24 31  1  0  0  0  0
 25 32  1  0  0  0  0
 26 33  1  0  0  0  0
 27 34  1  0  0  0  0
M  END
> <BCLConfClusterSize>
1

> <ConfClashScore>
0 

> <ConfOneFourInteractionScore>
-0.978127 

> <ConfScore>
-0.218298 

> <ConfScorePBest>
0.00734966 

> <ConfTolerance>
0.232971 

> <RosettaParamsInstructions>
M  ROOT 3
M  POLY_N_BB 3
M  POLY_CA_BB 4
M  POLY_C_BB 2
M  POLY_O_BB 5
M  POLY_IGNORE 9 10 11 12 13 14 15 16 17 18 
M  POLY_UPPER 6
M  POLY_LOWER 8
M  POLY_CHG 0
M  POLY_PROPERTIES ALPHA_AA L_AA PROTEIN AROMATIC POLYMER 
M  END

$$$$



 34 34  0  0  0  0  0  0  0  0999 V2000
   -1.2923    2.3873   -1.0817 H   0  0  0  1  0  0  0  0  0  0  0  0
   -1.1940    0.4887   -0.1432 C   0  0  0  1  0  0  0  0  0  0  0  0
   -3.1934    1.8628   -0.4587 N   0  0  0  1  0  0  0  0  0  0  0  0
   -1.7546    1.9067   -0.2449 C   0  0  0  1  0  0  0  0  0  0  0  0
   -1.9078   -0.4666    0.1573 O   0  0  0  1  0  0  0  0  0  0  0  0
    0.1192    0.4073   -0.4096 N   0  0  0  1  0  0  0  0  0  0  0  0
   -3.7447    1.4676    0.2486 H   0  0  0  1  0  0  0  0  0  0  0  0
   -3.8194    2.3206   -1.5467 C   0  0  0  1  0  0  0  0  0  0  0  0
    0.8706   -0.8281   -0.2452 C   0  0  0  1  0  0  0  0  0  0  0  0
   -5.3020    2.0142   -1.6315 C   0  0  0  1  0  0  0  0  0  0  0  0
   -3.2461    2.9521   -2.4334 O   0  0  0  1  0  0  0  0  0  0  0  0
    0.5882    1.2077   -0.7257 H   0  0  0  1  0  0  0  0  0  0  0  0
    1.7471   -0.7973   -0.8583 H   0  0  0  1  0  0  0  0  0  0  0  0
    0.2608   -1.6576   -0.5366 H   0  0  0  1  0  0  0  0  0  0  0  0
    1.1565   -0.9376    0.7800 H   0  0  0  1  0  0  0  0  0  0  0  0
   -5.8010    2.4253   -0.7789 H   0  0  0  1  0  0  0  0  0  0  0  0
   -5.4463    0.9542   -1.6522 H   0  0  0  1  0  0  0  0  0  0  0  0
   -5.7049    2.4470   -2.5233 H   0  0  0  1  0  0  0  0  0  0  0  0
   -1.4130    2.7119    1.0125 C   0  0  0  1  0  0  0  0  0  0  0  0
   -1.9347    4.1218    0.9691 C   0  0  0  1  0  0  0  0  0  0  0  0
   -1.0663    5.1758    0.7310 C   0  0  0  1  0  0  0  0  0  0  0  0
   -1.5457    6.4717    0.6966 C   0  0  0  1  0  0  0  0  0  0  0  0
   -2.8955    6.7170    0.8947 C   0  0  0  1  0  0  0  0  0  0  0  0
   -3.7612    5.6661    1.1321 C   0  0  0  1  0  0  0  0  0  0  0  0
   -3.2806    4.3663    1.1667 C   0  0  0  1  0  0  0  0  0  0  0  0
   -3.2940    8.0113    0.8417 O   0  0  0  1  0  0  0  0  0  0  0  0
   -0.7354    7.5347    0.4726 O   0  0  0  1  0  0  0  0  0  0  0  0
   -0.3486    2.7457    1.1165 H   0  0  0  1  0  0  0  0  0  0  0  0
   -1.8391    2.2170    1.8601 H   0  0  0  1  0  0  0  0  0  0  0  0
   -0.0543    4.9914    0.5783 H   0  0  0  1  0  0  0  0  0  0  0  0
   -4.7732    5.8505    1.2848 H   0  0  0  1  0  0  0  0  0  0  0  0
   -3.9328    3.5752    1.3413 H   0  0  0  1  0  0  0  0  0  0  0  0
   -3.7030    8.1861   -0.0091 H   0  0  0  1  0  0  0  0  0  0  0  0
   -0.0895    7.5998    1.1798 H   0  0  0  1  0  0  0  0  0  0  0  0
  1  4  1  0  0  0  0
  2  4  1  0  0  0  0
  2  5  2  0  0  0  0
  2  6  1  0  0  0  0
  3  4  1  0  0  0  0
  3  7  1  0  0  0  0
  3  8  1  0  0  0  0
  4 19  1  0  0  0  0
  6  9  1  0  0  0  0
  6 12  1  0  0  0  0
  8 10  1  0  0  0  0
  8 11  2  0  0  0  0
  9 13  1  0  0  0  0
  9 14  1  0  0  0  0
  9 15  1  0  0  0  0
 10 16  1  0  0  0  0
 10 17  1  0  0  0  0
 10 18  1  0  0  0  0
 19 20  1  0  0  0  0
 19 28  1  0  0  0  0
 19 29  1  0  0  0  0
 20 21  4  0  0  0  0
 20 25  4  0  0  0  0
 21 22  4  0  0  0  0
 21 30  1  0  0  0  0
 22 23  4  0  0  0  0
 22 27  1  0  0  0  0
 23 24  4  0  0  0  0
 23 26  1  0  0  0  0
 24 25  4  0  0  0  0
 24 31  1  0  0  0  0
 25 32  1  0  0  0  0
 26 33  1  0  0  0  0
 27 34  1  0  0  0  0
M  END
> <BCLConfClusterSize>
1

> <ConfClashScore>
0 

> <ConfOneFourInteractionScore>
-0.985807 

> <ConfScore>
-0.217874 

> <ConfScorePBest>
0.00732118 

> <ConfTolerance>
0.295716 

> <RosettaParamsInstructions>
M  ROOT 3
M  POLY_N_BB 3
M  POLY_CA_BB 4
M  POLY_C_BB 2
M  POLY_O_BB 5
M  POLY_IGNORE 9 10 11 12 13 14 15 16 17 18 
M  POLY_UPPER 6
M  POLY_LOWER 8
M  POLY_CHG 0
M  POLY_PROPERTIES ALPHA_AA L_AA PROTEIN AROMATIC POLYMER 
M  END

$$$$



 34 34  0  0  0  0  0  0  0  0999 V2000
   -2.4549    2.2228    3.1691 H   0  0  0  1  0  0  0  0  0  0  0  0
   -0.7759    0.9381    3.0565 C   0  0  0  1  0  0  0  0  0  0  0  0
   -0.7599    3.3526    3.5375 N   0  0  0  1  0  0  0  0  0  0  0  0
   -1.4464    2.2863    2.8171 C   0  0  0  1  0  0  0  0  0  0  0  0
    0.4383    0.8290    3.1152 O   0  0  0  1  0  0  0  0  0  0  0  0
   -1.6363   -0.0725    3.1897 N   0  0  0  1  0  0  0  0  0  0  0  0
    0.1709    3.5381    3.2934 H   0  0  0  1  0  0  0  0  0  0  0  0
   -1.3090    4.1019    4.5133 C   0  0  0  1  0  0  0  0  0  0  0  0
   -1.2620   -1.4647    3.3884 C   0  0  0  1  0  0  0  0  0  0  0  0
   -0.3495    5.1191    5.1175 C   0  0  0  1  0  0  0  0  0  0  0  0
   -2.4693    4.0008    4.9032 O   0  0  0  1  0  0  0  0  0  0  0  0
   -2.5925    0.1385    3.1509 H   0  0  0  1  0  0  0  0  0  0  0  0
   -0.3304   -1.5128    3.9126 H   0  0  0  1  0  0  0  0  0  0  0  0
   -1.1614   -1.9458    2.4380 H   0  0  0  1  0  0  0  0  0  0  0  0
   -2.0189   -1.9591    3.9607 H   0  0  0  1  0  0  0  0  0  0  0  0
   -0.8758    5.7357    5.8159 H   0  0  0  1  0  0  0  0  0  0  0  0
    0.0585    5.7301    4.3396 H   0  0  0  1  0  0  0  0  0  0  0  0
    0.4428    4.6061    5.6215 H   0  0  0  1  0  0  0  0  0  0  0  0
   -1.4863    2.6503    1.3296 C   0  0  0  1  0  0  0  0  0  0  0  0
   -1.9360    4.0651    1.0807 C   0  0  0  1  0  0  0  0  0  0  0  0
   -1.0010    5.0538    0.8164 C   0  0  0  1  0  0  0  0  0  0  0  0
   -1.4143    6.3536    0.5932 C   0  0  0  1  0  0  0  0  0  0  0  0
   -2.7639    6.6677    0.6282 C   0  0  0  1  0  0  0  0  0  0  0  0
   -3.6960    5.6818    0.8917 C   0  0  0  1  0  0  0  0  0  0  0  0
   -3.2818    4.3781    1.1156 C   0  0  0  1  0  0  0  0  0  0  0  0
   -3.2614    7.9105    0.4169 O   0  0  0  1  0  0  0  0  0  0  0  0
   -0.5740    7.3847    0.3330 O   0  0  0  1  0  0  0  0  0  0  0  0
   -2.1631    1.9857    0.8344 H   0  0  0  1  0  0  0  0  0  0  0  0
   -0.5043    2.5284    0.9227 H   0  0  0  1  0  0  0  0  0  0  0  0
    0.0114    4.8174    0.7862 H   0  0  0  1  0  0  0  0  0  0  0  0
   -4.7084    5.9182    0.9219 H   0  0  0  1  0  0  0  0  0  0  0  0
   -3.9836    3.6355    1.3098 H   0  0  0  1  0  0  0  0  0  0  0  0
   -3.5194    8.2993    1.2559 H   0  0  0  1  0  0  0  0  0  0  0  0
   -0.8644    8.1637    0.8132 H   0  0  0  1  0  0  0  0  0  0  0  0
  1  4  1  0  0  0  0
  2  4  1  0  0  0  0
  2  5  2  0  0  0  0
  2  6  1  0  0  0  0
  3  4  1  0  0  0  0
  3  7  1  0  0  0  0
  3  8  1  0  0  0  0
  4 19  1  0  0  0  0
  6  9  1  0  0  0  0
  6 12  1  0  0  0  0
  8 10  1  0  0  0  0
  8 11  2  0  0  0  0
  9 13  1  0  0  0  0
  9 14  1  0  0  0  0
  9 15  1  0  0  0  0
 10 16  1  0  0  0  0
 10 17  1  0  0  0  0
 10 18  1  0  0  0  0
 19 20  1  0  0  0  0
 19 28  1  0  0  0  0
 19 29  1  0  0  0  0
 20 21  4  0  0  0  0
 20 25  4  0  0  0  0
 21 22  4  0  0  0  0
 21 30  1  0  0  0  0
 22 23  4  0  0  0  0
 22 27  1  0  0  0  0
 23 24  4  0  0  0  0
 23 26  1  0  0  0  0
 24 25  4  0  0  0  0
 24 31  1  0  0  0  0
 25 32  1  0  0  0  0
 26 33  1  0  0  0  0
 27 34  1  0  0  0  0
M  END
> <BCLConfClusterSize>
1

> <ConfClashScore>
0 

> <ConfOneFourInteractionScore>
-0.972289 

> <ConfScore>
-0.211314 

> <ConfScorePBest>
0.0072927 

> <ConfTolerance>
0.267394 

> <RosettaParamsInstructions>
M  ROOT 3
M  POLY_N_BB 3
M  POLY_CA_BB 4
M  POLY_C_BB 2
M  POLY_O_BB 5
M  POLY_IGNORE 9 10 11 12 13 14 15 16 17 18 
M  POLY_UPPER 6
M  POLY_LOWER 8
M  POLY_CHG 0
M  POLY_PROPERTIES ALPHA_AA L_AA PROTEIN AROMATIC POLYMER 
M  END

$$$$



 34 34  0  0  0  0  0  0  0  0999 V2000
   -0.3646    2.4454   -0.5094 H   0  0  0  1  0  0  0  0  0  0  0  0
   -0.6988    0.5091    0.2679 C   0  0  0  1  0  0  0  0  0  0  0  0
   -2.3231    1.9081   -0.8962 N   0  0  0  1  0  0  0  0  0  0  0  0
   -1.1622    1.9277   -0.0188 C   0  0  0  1  0  0  0  0  0  0  0  0
   -1.5046   -0.3913    0.4994 O   0  0  0  1  0  0  0  0  0  0  0  0
    0.6294    0.3147    0.2502 N   0  0  0  1  0  0  0  0  0  0  0  0
   -3.1550    1.4854   -0.5970 H   0  0  0  1  0  0  0  0  0  0  0  0
   -2.2570    2.4643   -2.1068 C   0  0  0  1  0  0  0  0  0  0  0  0
    1.2334   -0.9595    0.6099 C   0  0  0  1  0  0  0  0  0  0  0  0
   -3.5623    2.5246   -2.8761 C   0  0  0  1  0  0  0  0  0  0  0  0
   -1.2148    2.9048   -2.5844 O   0  0  0  1  0  0  0  0  0  0  0  0
    1.2125    1.0566   -0.0142 H   0  0  0  1  0  0  0  0  0  0  0  0
    2.0898   -1.1357   -0.0069 H   0  0  0  1  0  0  0  0  0  0  0  0
    0.5216   -1.7451    0.4643 H   0  0  0  1  0  0  0  0  0  0  0  0
    1.5328   -0.9347    1.6369 H   0  0  0  1  0  0  0  0  0  0  0  0
   -4.2637    3.1313   -2.3424 H   0  0  0  1  0  0  0  0  0  0  0  0
   -3.9572    1.5362   -2.9860 H   0  0  0  1  0  0  0  0  0  0  0  0
   -3.3871    2.9488   -3.8427 H   0  0  0  1  0  0  0  0  0  0  0  0
   -1.4738    2.6614    1.2791 C   0  0  0  1  0  0  0  0  0  0  0  0
   -1.9345    4.0776    1.0598 C   0  0  0  1  0  0  0  0  0  0  0  0
   -1.0109    5.0709    0.7735 C   0  0  0  1  0  0  0  0  0  0  0  0
   -1.4341    6.3720    0.5776 C   0  0  0  1  0  0  0  0  0  0  0  0
   -2.7823    6.6827    0.6622 C   0  0  0  1  0  0  0  0  0  0  0  0
   -3.7030    5.6922    0.9476 C   0  0  0  1  0  0  0  0  0  0  0  0
   -3.2788    4.3872    1.1442 C   0  0  0  1  0  0  0  0  0  0  0  0
   -3.1238    7.9775    0.4533 O   0  0  0  1  0  0  0  0  0  0  0  0
   -0.5690    7.3778    0.3007 O   0  0  0  1  0  0  0  0  0  0  0  0
   -0.5891    2.6803    1.8805 H   0  0  0  1  0  0  0  0  0  0  0  0
   -2.2450    2.1284    1.7949 H   0  0  0  1  0  0  0  0  0  0  0  0
    0.0002    4.8372    0.7061 H   0  0  0  1  0  0  0  0  0  0  0  0
   -4.7141    5.9260    1.0150 H   0  0  0  1  0  0  0  0  0  0  0  0
   -3.9721    3.6412    1.3550 H   0  0  0  1  0  0  0  0  0  0  0  0
   -3.8419    8.2187    1.0430 H   0  0  0  1  0  0  0  0  0  0  0  0
   -0.6410    8.0572    0.9751 H   0  0  0  1  0  0  0  0  0  0  0  0
  1  4  1  0  0  0  0
  2  4  1  0  0  0  0
  2  5  2  0  0  0  0
  2  6  1  0  0  0  0
  3  4  1  0  0  0  0
  3  7  1  0  0  0  0
  3  8  1  0  0  0  0
  4 19  1  0  0  0  0
  6  9  1  0  0  0  0
  6 12  1  0  0  0  0
  8 10  1  0  0  0  0
  8 11  2  0  0  0  0
  9 13  1  0  0  0  0
  9 14  1  0  0  0  0
  9 15  1  0  0  0  0
 10 16  1  0  0  0  0
 10 17  1  0  0  0  0
 10 18  1  0  0  0  0
 19 20  1  0  0  0  0
 19 28  1  0  0  0  0
 19 29  1  0  0  0  0
 20 21  4  0  0  0  0
 20 25  4  0  0  0  0
 21 22  4  0  0  0  0
 21 30  1  0  0  0  0
 22 23  4  0  0  0  0
 22 27  1  0  0  0  0
 23 24  4  0  0  0  0
 23 26  1  0  0  0  0
 24 25  4  0  0  0  0
 24 31  1  0  0  0  0
 25 32  1  0  0  0  0
 26 33  1  0  0  0  0
 27 34  1  0  0  0  0
M  END
> <BCLConfClusterSize>
1

> <ConfClashScore>
0 

> <ConfOneFourInteractionScore>
-0.985807 

> <ConfScore>
-0.208717 

> <ConfScorePBest>
0.00726422 

> <ConfTolerance>
0.236101 

> <RosettaParamsInstructions>
M  ROOT 3
M  POLY_N_BB 3
M  POLY_CA_BB 4
M  POLY_C_BB 2
M  POLY_O_BB 5
M  POLY_IGNORE 9 10 11 12 13 14 15 16 17 18 
M  POLY_UPPER 6
M  POLY_LOWER 8
M  POLY_CHG 0
M  POLY_PROPERTIES ALPHA_AA L_AA PROTEIN AROMATIC POLYMER 
M  END

$$$$



 34 34  0  0  0  0  0  0  0  0999 V2000
   -0.2893    2.8967   -0.8519 H   0  0  0  1  0  0  0  0  0  0  0  0
   -0.3560    0.8517   -0.3329 C   0  0  0  1  0  0  0  0  0  0  0  0
   -2.1544    2.1508   -1.3381 N   0  0  0  1  0  0  0  0  0  0  0  0
   -1.0081    2.2159   -0.4458 C   0  0  0  1  0  0  0  0  0  0  0  0
    0.7837    0.7237    0.1125 O   0  0  0  1  0  0  0  0  0  0  0  0
   -1.0998   -0.1863   -0.7469 N   0  0  0  1  0  0  0  0  0  0  0  0
   -3.0200    2.4835   -1.0211 H   0  0  0  1  0  0  0  0  0  0  0  0
   -2.0687    1.6531   -2.5750 C   0  0  0  1  0  0  0  0  0  0  0  0
   -0.5496   -1.5248   -0.9003 C   0  0  0  1  0  0  0  0  0  0  0  0
   -3.3348    1.7314   -3.4057 C   0  0  0  1  0  0  0  0  0  0  0  0
   -1.0371    1.1591   -3.0283 O   0  0  0  1  0  0  0  0  0  0  0  0
   -2.0463   -0.0375   -0.9529 H   0  0  0  1  0  0  0  0  0  0  0  0
   -1.3284   -2.2005   -1.1861 H   0  0  0  1  0  0  0  0  0  0  0  0
   -0.1239   -1.8438    0.0281 H   0  0  0  1  0  0  0  0  0  0  0  0
    0.2081   -1.5142   -1.6558 H   0  0  0  1  0  0  0  0  0  0  0  0
   -3.8386    2.6533   -3.2029 H   0  0  0  1  0  0  0  0  0  0  0  0
   -3.9762    0.9122   -3.1559 H   0  0  0  1  0  0  0  0  0  0  0  0
   -3.0829    1.6839   -4.4446 H   0  0  0  1  0  0  0  0  0  0  0  0
   -1.4164    2.7278    0.9258 C   0  0  0  1  0  0  0  0  0  0  0  0
   -1.9299    4.1425    0.9600 C   0  0  0  1  0  0  0  0  0  0  0  0
   -1.0432    5.2045    0.8741 C   0  0  0  1  0  0  0  0  0  0  0  0
   -1.5150    6.5031    0.9110 C   0  0  0  1  0  0  0  0  0  0  0  0
   -2.8751    6.7435    1.0284 C   0  0  0  1  0  0  0  0  0  0  0  0
   -3.7590    5.6845    1.1140 C   0  0  0  1  0  0  0  0  0  0  0  0
   -3.2861    4.3820    1.0770 C   0  0  0  1  0  0  0  0  0  0  0  0
   -3.2649    8.0413    1.0526 O   0  0  0  1  0  0  0  0  0  0  0  0
   -0.5901    7.4901    0.8274 O   0  0  0  1  0  0  0  0  0  0  0  0
   -0.5617    2.6714    1.5671 H   0  0  0  1  0  0  0  0  0  0  0  0
   -2.1873    2.0877    1.3010 H   0  0  0  1  0  0  0  0  0  0  0  0
   -0.0231    5.0242    0.7820 H   0  0  0  1  0  0  0  0  0  0  0  0
   -4.7791    5.8648    1.2061 H   0  0  0  1  0  0  0  0  0  0  0  0
   -3.9517    3.5852    1.1374 H   0  0  0  1  0  0  0  0  0  0  0  0
   -3.9449    8.1840    0.3902 H   0  0  0  1  0  0  0  0  0  0  0  0
   -0.1006    7.4020    0.0063 H   0  0  0  1  0  0  0  0  0  0  0  0
  1  4  1  0  0  0  0
  2  4  1  0  0  0  0
  2  5  2  0  0  0  0
  2  6  1  0  0  0  0
  3  4  1  0  0  0  0
  3  7  1  0  0  0  0
  3  8  1  0  0  0  0
  4 19  1  0  0  0  0
  6  9  1  0  0  0  0
  6 12  1  0  0  0  0
  8 10  1  0  0  0  0
  8 11  2  0  0  0  0
  9 13  1  0  0  0  0
  9 14  1  0  0  0  0
  9 15  1  0  0  0  0
 10 16  1  0  0  0  0
 10 17  1  0  0  0  0
 10 18  1  0  0  0  0
 19 20  1  0  0  0  0
 19 28  1  0  0  0  0
 19 29  1  0  0  0  0
 20 21  4  0  0  0  0
 20 25  4  0  0  0  0
 21 22  4  0  0  0  0
 21 30  1  0  0  0  0
 22 23  4  0  0  0  0
 22 27  1  0  0  0  0
 23 24  4  0  0  0  0
 23 26  1  0  0  0  0
 24 25  4  0  0  0  0
 24 31  1  0  0  0  0
 25 32  1  0  0  0  0
 26 33  1  0  0  0  0
 27 34  1  0  0  0  0
M  END
> <BCLConfClusterSize>
1

> <ConfClashScore>
0 

> <ConfOneFourInteractionScore>
-0.94165 

> <ConfScore>
-0.207169 

> <ConfScorePBest>
0.00723574 

> <ConfTolerance>
0.271652 

> <RosettaParamsInstructions>
M  ROOT 3
M  POLY_N_BB 3
M  POLY_CA_BB 4
M  POLY_C_BB 2
M  POLY_O_BB 5
M  POLY_IGNORE 9 10 11 12 13 14 15 16 17 18 
M  POLY_UPPER 6
M  POLY_LOWER 8
M  POLY_CHG 0
M  POLY_PROPERTIES ALPHA_AA L_AA PROTEIN AROMATIC POLYMER 
M  END

$$$$



 34 34  0  0  0  0  0  0  0  0999 V2000
   -0.0369    3.0468    2.7793 H   0  0  0  1  0  0  0  0  0  0  0  0
   -1.8830    2.8642    3.7800 C   0  0  0  1  0  0  0  0  0  0  0  0
   -0.4857    1.0410    2.8456 N   0  0  0  1  0  0  0  0  0  0  0  0
   -0.9040    2.4255    2.6951 C   0  0  0  1  0  0  0  0  0  0  0  0
   -2.0108    4.0496    4.0832 O   0  0  0  1  0  0  0  0  0  0  0  0
   -2.5767    1.8861    4.3644 N   0  0  0  1  0  0  0  0  0  0  0  0
   -0.6846    0.4059    2.1262 H   0  0  0  1  0  0  0  0  0  0  0  0
    0.1580    0.6061    3.9267 C   0  0  0  1  0  0  0  0  0  0  0  0
   -3.4997    2.0680    5.4748 C   0  0  0  1  0  0  0  0  0  0  0  0
    0.4992   -0.8822    3.9218 C   0  0  0  1  0  0  0  0  0  0  0  0
    0.4059    1.3100    4.9049 O   0  0  0  1  0  0  0  0  0  0  0  0
   -2.4558    0.9766    4.0201 H   0  0  0  1  0  0  0  0  0  0  0  0
   -3.0965    2.7834    6.1608 H   0  0  0  1  0  0  0  0  0  0  0  0
   -3.6419    1.1337    5.9767 H   0  0  0  1  0  0  0  0  0  0  0  0
   -4.4391    2.4205    5.1033 H   0  0  0  1  0  0  0  0  0  0  0  0
   -0.3989   -1.4549    4.0229 H   0  0  0  1  0  0  0  0  0  0  0  0
    1.1548   -1.1003    4.7388 H   0  0  0  1  0  0  0  0  0  0  0  0
    0.9809   -1.1344    3.0002 H   0  0  0  1  0  0  0  0  0  0  0  0
   -1.4858    2.6451    1.3082 C   0  0  0  1  0  0  0  0  0  0  0  0
   -1.9376    4.0621    1.0759 C   0  0  0  1  0  0  0  0  0  0  0  0
   -1.0041    5.0553    0.8233 C   0  0  0  1  0  0  0  0  0  0  0  0
   -1.4194    6.3571    0.6154 C   0  0  0  1  0  0  0  0  0  0  0  0
   -2.7695    6.6686    0.6542 C   0  0  0  1  0  0  0  0  0  0  0  0
   -3.7001    5.6783    0.9061 C   0  0  0  1  0  0  0  0  0  0  0  0
   -3.2839    4.3726    1.1146 C   0  0  0  1  0  0  0  0  0  0  0  0
   -3.1521    7.9513    0.4420 O   0  0  0  1  0  0  0  0  0  0  0  0
   -0.5446    7.3627    0.3702 O   0  0  0  1  0  0  0  0  0  0  0  0
   -2.3266    1.9950    1.1847 H   0  0  0  1  0  0  0  0  0  0  0  0
   -0.7375    2.4030    0.5827 H   0  0  0  1  0  0  0  0  0  0  0  0
    0.0086    4.8209    0.7902 H   0  0  0  1  0  0  0  0  0  0  0  0
   -4.7128    5.9127    0.9391 H   0  0  0  1  0  0  0  0  0  0  0  0
   -3.9845    3.6268    1.3001 H   0  0  0  1  0  0  0  0  0  0  0  0
   -3.6043    8.2838    1.2208 H   0  0  0  1  0  0  0  0  0  0  0  0
   -0.8890    8.1824    0.7322 H   0  0  0  1  0  0  0  0  0  0  0  0
  1  4  1  0  0  0  0
  2  4  1  0  0  0  0
  2  5  2  0  0  0  0
  2  6  1  0  0  0  0
  3  4  1  0  0  0  0
  3  7  1  0  0  0  0
  3  8  1  0  0  0  0
  4 19  1  0  0  0  0
  6  9  1  0  0  0  0
  6 12  1  0  0  0  0
  8 10  1  0  0  0  0
  8 11  2  0  0  0  0
  9 13  1  0  0  0  0
  9 14  1  0  0  0  0
  9 15  1  0  0  0  0
 10 16  1  0  0  0  0
 10 17  1  0  0  0  0
 10 18  1  0  0  0  0
 19 20  1  0  0  0  0
 19 28  1  0  0  0  0
 19 29  1  0  0  0  0
 20 21  4  0  0  0  0
 20 25  4  0  0  0  0
 21 22  4  0  0  0  0
 21 30  1  0  0  0  0
 22 23  4  0  0  0  0
 22 27  1  0  0  0  0
 23 24  4  0  0  0  0
 23 26  1  0  0  0  0
 24 25  4  0  0  0  0
 24 31  1  0  0  0  0
 25 32  1  0  0  0  0
 26 33  1  0  0  0  0
 27 34  1  0  0  0  0
M  END
> <BCLConfClusterSize>
1

> <ConfClashScore>
0 

> <ConfOneFourInteractionScore>
-0.960318 

> <ConfScore>
-0.206431 

> <ConfScorePBest>
0.00720726 

> <ConfTolerance>
0.209749 

> <RosettaParamsInstructions>
M  ROOT 3
M  POLY_N_BB 3
M  POLY_CA_BB 4
M  POLY_C_BB 2
M  POLY_O_BB 5
M  POLY_IGNORE 9 10 11 12 13 14 15 16 17 18 
M  POLY_UPPER 6
M  POLY_LOWER 8
M  POLY_CHG 0
M  POLY_PROPERTIES ALPHA_AA L_AA PROTEIN AROMATIC POLYMER 
M  END

$$$$



 34 34  0  0  0  0  0  0  0  0999 V2000
    0.0863    2.9419    2.7250 H   0  0  0  1  0  0  0  0  0  0  0  0
   -1.7667    2.9485    3.7296 C   0  0  0  1  0  0  0  0  0  0  0  0
   -0.5595    0.9883    2.8239 N   0  0  0  1  0  0  0  0  0  0  0  0
   -0.8373    2.4066    2.6525 C   0  0  0  1  0  0  0  0  0  0  0  0
   -1.5768    4.0649    4.2092 O   0  0  0  1  0  0  0  0  0  0  0  0
   -2.7205    2.1283    4.1797 N   0  0  0  1  0  0  0  0  0  0  0  0
   -0.6050    0.4184    2.0280 H   0  0  0  1  0  0  0  0  0  0  0  0
   -0.2472    0.4048    3.9845 C   0  0  0  1  0  0  0  0  0  0  0  0
   -3.6052    2.4367    5.2933 C   0  0  0  1  0  0  0  0  0  0  0  0
   -0.1652   -1.1091    3.9596 C   0  0  0  1  0  0  0  0  0  0  0  0
   -0.0362    1.0388    5.0175 O   0  0  0  1  0  0  0  0  0  0  0  0
   -2.8315    1.2640    3.7313 H   0  0  0  1  0  0  0  0  0  0  0  0
   -3.1266    3.1359    5.9467 H   0  0  0  1  0  0  0  0  0  0  0  0
   -3.8262    1.5390    5.8321 H   0  0  0  1  0  0  0  0  0  0  0  0
   -4.5133    2.8619    4.9199 H   0  0  0  1  0  0  0  0  0  0  0  0
    0.1823   -1.4322    3.0006 H   0  0  0  1  0  0  0  0  0  0  0  0
   -1.1349   -1.5216    4.1449 H   0  0  0  1  0  0  0  0  0  0  0  0
    0.5149   -1.4416    4.7157 H   0  0  0  1  0  0  0  0  0  0  0  0
   -1.4334    2.7148    1.2992 C   0  0  0  1  0  0  0  0  0  0  0  0
   -1.9276    4.1163    1.0590 C   0  0  0  1  0  0  0  0  0  0  0  0
   -1.0285    5.1257    0.7519 C   0  0  0  1  0  0  0  0  0  0  0  0
   -1.4824    6.4133    0.5368 C   0  0  0  1  0  0  0  0  0  0  0  0
   -2.8371    6.6943    0.6228 C   0  0  0  1  0  0  0  0  0  0  0  0
   -3.7333    5.6877    0.9290 C   0  0  0  1  0  0  0  0  0  0  0  0
   -3.2783    4.3963    1.1448 C   0  0  0  1  0  0  0  0  0  0  0  0
   -3.3302    7.9394    0.4152 O   0  0  0  1  0  0  0  0  0  0  0  0
   -0.6420    7.4340    0.2391 O   0  0  0  1  0  0  0  0  0  0  0  0
   -2.2629    2.0540    1.1567 H   0  0  0  1  0  0  0  0  0  0  0  0
   -0.6830    2.5096    0.5646 H   0  0  0  1  0  0  0  0  0  0  0  0
   -0.0125    4.9141    0.6834 H   0  0  0  1  0  0  0  0  0  0  0  0
   -4.7493    5.8993    0.9975 H   0  0  0  1  0  0  0  0  0  0  0  0
   -3.9533    3.6381    1.3713 H   0  0  0  1  0  0  0  0  0  0  0  0
   -3.8129    8.2269    1.1936 H   0  0  0  1  0  0  0  0  0  0  0  0
   -0.2583    7.7795    1.0484 H   0  0  0  1  0  0  0  0  0  0  0  0
  1  4  1  0  0  0  0
  2  4  1  0  0  0  0
  2  5  2  0  0  0  0
  2  6  1  0  0  0  0
  3  4  1  0  0  0  0
  3  7  1  0  0  0  0
  3  8  1  0  0  0  0
  4 19  1  0  0  0  0
  6  9  1  0  0  0  0
  6 12  1  0  0  0  0
  8 10  1  0  0  0  0
  8 11  2  0  0  0  0
  9 13  1  0  0  0  0
  9 14  1  0  0  0  0
  9 15  1  0  0  0  0
 10 16  1  0  0  0  0
 10 17  1  0  0  0  0
 10 18  1  0  0  0  0
 19 20  1  0  0  0  0
 19 28  1  0  0  0  0
 19 29  1  0  0  0  0
 20 21  4  0  0  0  0
 20 25  4  0  0  0  0
 21 22  4  0  0  0  0
 21 30  1  0  0  0  0
 22 23  4  0  0  0  0
 22 27  1  0  0  0  0
 23 24  4  0  0  0  0
 23 26  1  0  0  0  0
 24 25  4  0  0  0  0
 24 31  1  0  0  0  0
 25 32  1  0  0  0  0
 26 33  1  0  0  0  0
 27 34  1  0  0  0  0
M  END
> <BCLConfClusterSize>
1

> <ConfClashScore>
0 

> <ConfOneFourInteractionScore>
-0.960318 

> <ConfScore>
-0.205208 

> <ConfScorePBest>
0.00717878 

> <ConfTolerance>
0.3083 

> <RosettaParamsInstructions>
M  ROOT 3
M  POLY_N_BB 3
M  POLY_CA_BB 4
M  POLY_C_BB 2
M  POLY_O_BB 5
M  POLY_IGNORE 9 10 11 12 13 14 15 16 17 18 
M  POLY_UPPER 6
M  POLY_LOWER 8
M  POLY_CHG 0
M  POLY_PROPERTIES ALPHA_AA L_AA PROTEIN AROMATIC POLYMER 
M  END

$$$$



 34 34  0  0  0  0  0  0  0  0999 V2000
   -2.1464    2.1685   -0.8814 H   0  0  0  1  0  0  0  0  0  0  0  0
   -0.2182    2.9747   -1.1447 C   0  0  0  1  0  0  0  0  0  0  0  0
   -0.8059    0.7233   -0.2905 N   0  0  0  1  0  0  0  0  0  0  0  0
   -1.2098    2.1194   -0.3665 C   0  0  0  1  0  0  0  0  0  0  0  0
   -0.5943    3.9256   -1.8280 O   0  0  0  1  0  0  0  0  0  0  0  0
    1.0656    2.6223   -1.0324 N   0  0  0  1  0  0  0  0  0  0  0  0
   -0.7951    0.2810    0.5839 H   0  0  0  1  0  0  0  0  0  0  0  0
   -0.4495    0.0236   -1.3715 C   0  0  0  1  0  0  0  0  0  0  0  0
    2.1384    3.3858   -1.6522 C   0  0  0  1  0  0  0  0  0  0  0  0
   -0.0639   -1.4393   -1.1365 C   0  0  0  1  0  0  0  0  0  0  0  0
   -0.4055    0.4501   -2.5246 O   0  0  0  1  0  0  0  0  0  0  0  0
    1.2928    1.8219   -0.5145 H   0  0  0  1  0  0  0  0  0  0  0  0
    3.0076    3.3510   -1.0292 H   0  0  0  1  0  0  0  0  0  0  0  0
    1.8278    4.4024   -1.7744 H   0  0  0  1  0  0  0  0  0  0  0  0
    2.3685    2.9652   -2.6088 H   0  0  0  1  0  0  0  0  0  0  0  0
   -0.8549   -1.9380   -0.6164 H   0  0  0  1  0  0  0  0  0  0  0  0
    0.8305   -1.4825   -0.5509 H   0  0  0  1  0  0  0  0  0  0  0  0
    0.1021   -1.9198   -2.0781 H   0  0  0  1  0  0  0  0  0  0  0  0
   -1.4363    2.6769    1.0422 C   0  0  0  1  0  0  0  0  0  0  0  0
   -1.9375    4.0950    0.9808 C   0  0  0  1  0  0  0  0  0  0  0  0
   -1.0523    5.1335    0.7367 C   0  0  0  1  0  0  0  0  0  0  0  0
   -1.5124    6.4358    0.6858 C   0  0  0  1  0  0  0  0  0  0  0  0
   -2.8596    6.7030    0.8734 C   0  0  0  1  0  0  0  0  0  0  0  0
   -3.7419    5.6675    1.1168 C   0  0  0  1  0  0  0  0  0  0  0  0
   -3.2807    4.3612    1.1680 C   0  0  0  1  0  0  0  0  0  0  0  0
   -3.3585    7.9623    0.8275 O   0  0  0  1  0  0  0  0  0  0  0  0
   -0.6853    7.4844    0.4554 O   0  0  0  1  0  0  0  0  0  0  0  0
   -0.5122    2.6544    1.5812 H   0  0  0  1  0  0  0  0  0  0  0  0
   -2.1592    2.0709    1.5473 H   0  0  0  1  0  0  0  0  0  0  0  0
   -0.0422    4.9327    0.5919 H   0  0  0  1  0  0  0  0  0  0  0  0
   -4.7520    5.8683    1.2616 H   0  0  0  1  0  0  0  0  0  0  0  0
   -3.9454    3.5817    1.3471 H   0  0  0  1  0  0  0  0  0  0  0  0
   -3.4816    8.2250   -0.0876 H   0  0  0  1  0  0  0  0  0  0  0  0
   -0.3936    7.8525    1.2927 H   0  0  0  1  0  0  0  0  0  0  0  0
  1  4  1  0  0  0  0
  2  4  1  0  0  0  0
  2  5  2  0  0  0  0
  2  6  1  0  0  0  0
  3  4  1  0  0  0  0
  3  7  1  0  0  0  0
  3  8  1  0  0  0  0
  4 19  1  0  0  0  0
  6  9  1  0  0  0  0
  6 12  1  0  0  0  0
  8 10  1  0  0  0  0
  8 11  2  0  0  0  0
  9 13  1  0  0  0  0
  9 14  1  0  0  0  0
  9 15  1  0  0  0  0
 10 16  1  0  0  0  0
 10 17  1  0  0  0  0
 10 18  1  0  0  0  0
 19 20  1  0  0  0  0
 19 28  1  0  0  0  0
 19 29  1  0  0  0  0
 20 21  4  0  0  0  0
 20 25  4  0  0  0  0
 21 22  4  0  0  0  0
 21 30  1  0  0  0  0
 22 23  4  0  0  0  0
 22 27  1  0  0  0  0
 23 24  4  0  0  0  0
 23 26  1  0  0  0  0
 24 25  4  0  0  0  0
 24 31  1  0  0  0  0
 25 32  1  0  0  0  0
 26 33  1  0  0  0  0
 27 34  1  0  0  0  0
M  END
> <BCLConfClusterSize>
1

> <ConfClashScore>
0 

> <ConfOneFourInteractionScore>
-0.960318 

> <ConfScore>
-0.202353 

> <ConfScorePBest>
0.0071503 

> <ConfTolerance>
0.216522 

> <RosettaParamsInstructions>
M  ROOT 3
M  POLY_N_BB 3
M  POLY_CA_BB 4
M  POLY_C_BB 2
M  POLY_O_BB 5
M  POLY_IGNORE 9 10 11 12 13 14 15 16 17 18 
M  POLY_UPPER 6
M  POLY_LOWER 8
M  POLY_CHG 0
M  POLY_PROPERTIES ALPHA_AA L_AA PROTEIN AROMATIC POLYMER 
M  END

$$$$



 34 34  0  0  0  0  0  0  0  0999 V2000
   -0.2784    2.6958   -0.4689 H   0  0  0  1  0  0  0  0  0  0  0  0
   -0.3082    0.6767    0.0953 C   0  0  0  1  0  0  0  0  0  0  0  0
   -2.0966    1.9129   -1.0113 N   0  0  0  1  0  0  0  0  0  0  0  0
   -1.0008    2.0298   -0.0453 C   0  0  0  1  0  0  0  0  0  0  0  0
   -0.8741   -0.3668   -0.2278 O   0  0  0  1  0  0  0  0  0  0  0  0
    0.9400    0.7090    0.5882 N   0  0  0  1  0  0  0  0  0  0  0  0
   -2.8565    1.3439   -0.7679 H   0  0  0  1  0  0  0  0  0  0  0  0
   -2.1378    2.5237   -2.1989 C   0  0  0  1  0  0  0  0  0  0  0  0
    1.7446   -0.4932    0.7465 C   0  0  0  1  0  0  0  0  0  0  0  0
   -3.2307    2.0585   -3.1414 C   0  0  0  1  0  0  0  0  0  0  0  0
   -1.3479    3.4090   -2.5246 O   0  0  0  1  0  0  0  0  0  0  0  0
    1.3228    1.5722    0.8505 H   0  0  0  1  0  0  0  0  0  0  0  0
    1.1020   -1.3374    0.8851 H   0  0  0  1  0  0  0  0  0  0  0  0
    2.3814   -0.3862    1.5997 H   0  0  0  1  0  0  0  0  0  0  0  0
    2.3421   -0.6401   -0.1289 H   0  0  0  1  0  0  0  0  0  0  0  0
   -3.1016    1.0174   -3.3518 H   0  0  0  1  0  0  0  0  0  0  0  0
   -3.1762    2.6159   -4.0531 H   0  0  0  1  0  0  0  0  0  0  0  0
   -4.1856    2.2140   -2.6842 H   0  0  0  1  0  0  0  0  0  0  0  0
   -1.4365    2.6511    1.2752 C   0  0  0  1  0  0  0  0  0  0  0  0
   -1.9366    4.0553    1.0652 C   0  0  0  1  0  0  0  0  0  0  0  0
   -1.0371    5.0854    0.8387 C   0  0  0  1  0  0  0  0  0  0  0  0
   -1.4967    6.3753    0.6512 C   0  0  0  1  0  0  0  0  0  0  0  0
   -2.8574    6.6380    0.6843 C   0  0  0  1  0  0  0  0  0  0  0  0
   -3.7541    5.6109    0.9101 C   0  0  0  1  0  0  0  0  0  0  0  0
   -3.2933    4.3171    1.0982 C   0  0  0  1  0  0  0  0  0  0  0  0
   -3.3992    7.8675    0.5063 O   0  0  0  1  0  0  0  0  0  0  0  0
   -0.6564    7.4156    0.4319 O   0  0  0  1  0  0  0  0  0  0  0  0
   -0.6024    2.6723    1.9451 H   0  0  0  1  0  0  0  0  0  0  0  0
   -2.2204    2.0593    1.6997 H   0  0  0  1  0  0  0  0  0  0  0  0
   -0.0165    4.8876    0.8099 H   0  0  0  1  0  0  0  0  0  0  0  0
   -4.7747    5.8087    0.9389 H   0  0  0  1  0  0  0  0  0  0  0  0
   -3.9684    3.5436    1.2641 H   0  0  0  1  0  0  0  0  0  0  0  0
   -2.8564    8.5240    0.9489 H   0  0  0  1  0  0  0  0  0  0  0  0
   -0.9959    8.1997    0.8695 H   0  0  0  1  0  0  0  0  0  0  0  0
  1  4  1  0  0  0  0
  2  4  1  0  0  0  0
  2  5  2  0  0  0  0
  2  6  1  0  0  0  0
  3  4  1  0  0  0  0
  3  7  1  0  0  0  0
  3  8  1  0  0  0  0
  4 19  1  0  0  0  0
  6  9  1  0  0  0  0
  6 12  1  0  0  0  0
  8 10  1  0  0  0  0
  8 11  2  0  0  0  0
  9 13  1  0  0  0  0
  9 14  1  0  0  0  0
  9 15  1  0  0  0  0
 10 16  1  0  0  0  0
 10 17  1  0  0  0  0
 10 18  1  0  0  0  0
 19 20  1  0  0  0  0
 19 28  1  0  0  0  0
 19 29  1  0  0  0  0
 20 21  4  0  0  0  0
 20 25  4  0  0  0  0
 21 22  4  0  0  0  0
 21 30  1  0  0  0  0
 22 23  4  0  0  0  0
 22 27  1  0  0  0  0
 23 24  4  0  0  0  0
 23 26  1  0  0  0  0
 24 25  4  0  0  0  0
 24 31  1  0  0  0  0
 25 32  1  0  0  0  0
 26 33  1  0  0  0  0
 27 34  1  0  0  0  0
M  END
> <BCLConfClusterSize>
1

> <ConfClashScore>
0 

> <ConfOneFourInteractionScore>
-0.992391 

> <ConfScore>
-0.201287 

> <ConfScorePBest>
0.00712182 

> <ConfTolerance>
0.334929 

> <RosettaParamsInstructions>
M  ROOT 3
M  POLY_N_BB 3
M  POLY_CA_BB 4
M  POLY_C_BB 2
M  POLY_O_BB 5
M  POLY_IGNORE 9 10 11 12 13 14 15 16 17 18 
M  POLY_UPPER 6
M  POLY_LOWER 8
M  POLY_CHG 0
M  POLY_PROPERTIES ALPHA_AA L_AA PROTEIN AROMATIC POLYMER 
M  END

$$$$



 34 34  0  0  0  0  0  0  0  0999 V2000
   -2.4274    2.0793    2.7080 H   0  0  0  1  0  0  0  0  0  0  0  0
   -0.9282    0.6469    2.2422 C   0  0  0  1  0  0  0  0  0  0  0  0
   -0.5559    2.7989    3.2460 N   0  0  0  1  0  0  0  0  0  0  0  0
   -1.4273    2.0836    2.3277 C   0  0  0  1  0  0  0  0  0  0  0  0
   -1.5934   -0.2800    1.8201 O   0  0  0  1  0  0  0  0  0  0  0  0
    0.3189    0.4367    2.6661 N   0  0  0  1  0  0  0  0  0  0  0  0
   -0.0242    3.5488    2.9064 H   0  0  0  1  0  0  0  0  0  0  0  0
   -0.4549    2.4694    4.5369 C   0  0  0  1  0  0  0  0  0  0  0  0
    0.9201   -0.8730    2.8694 C   0  0  0  1  0  0  0  0  0  0  0  0
    0.4081    3.3836    5.3846 C   0  0  0  1  0  0  0  0  0  0  0  0
   -1.0187    1.4906    5.0244 O   0  0  0  1  0  0  0  0  0  0  0  0
    0.8720    1.2233    2.8550 H   0  0  0  1  0  0  0  0  0  0  0  0
    1.6974   -0.7995    3.6011 H   0  0  0  1  0  0  0  0  0  0  0  0
    1.3319   -1.2233    1.9460 H   0  0  0  1  0  0  0  0  0  0  0  0
    0.1732   -1.5590    3.2104 H   0  0  0  1  0  0  0  0  0  0  0  0
    0.0823    4.3956    5.2637 H   0  0  0  1  0  0  0  0  0  0  0  0
    1.4288    3.2984    5.0749 H   0  0  0  1  0  0  0  0  0  0  0  0
    0.3223    3.1020    6.4132 H   0  0  0  1  0  0  0  0  0  0  0  0
   -1.4333    2.7275    0.9377 C   0  0  0  1  0  0  0  0  0  0  0  0
   -1.9218    4.1513    0.9495 C   0  0  0  1  0  0  0  0  0  0  0  0
   -1.0652    5.2313    0.8028 C   0  0  0  1  0  0  0  0  0  0  0  0
   -1.5667    6.5190    0.8265 C   0  0  0  1  0  0  0  0  0  0  0  0
   -2.9266    6.7305    0.9915 C   0  0  0  1  0  0  0  0  0  0  0  0
   -3.7805    5.6536    1.1377 C   0  0  0  1  0  0  0  0  0  0  0  0
   -3.2778    4.3620    1.1140 C   0  0  0  1  0  0  0  0  0  0  0  0
   -3.3947    8.0022    1.0060 O   0  0  0  1  0  0  0  0  0  0  0  0
   -0.7688    7.6063    0.6924 O   0  0  0  1  0  0  0  0  0  0  0  0
   -2.0721    2.1536    0.2993 H   0  0  0  1  0  0  0  0  0  0  0  0
   -0.4357    2.7129    0.5512 H   0  0  0  1  0  0  0  0  0  0  0  0
   -0.0454    5.0726    0.6750 H   0  0  0  1  0  0  0  0  0  0  0  0
   -4.8004    5.8123    1.2655 H   0  0  0  1  0  0  0  0  0  0  0  0
   -3.9210    3.5516    1.2200 H   0  0  0  1  0  0  0  0  0  0  0  0
   -3.7132    8.2365    0.1312 H   0  0  0  1  0  0  0  0  0  0  0  0
    0.1362    7.3231    0.5427 H   0  0  0  1  0  0  0  0  0  0  0  0
  1  4  1  0  0  0  0
  2  4  1  0  0  0  0
  2  5  2  0  0  0  0
  2  6  1  0  0  0  0
  3  4  1  0  0  0  0
  3  7  1  0  0  0  0
  3  8  1  0  0  0  0
  4 19  1  0  0  0  0
  6  9  1  0  0  0  0
  6 12  1  0  0  0  0
  8 10  1  0  0  0  0
  8 11  2  0  0  0  0
  9 13  1  0  0  0  0
  9 14  1  0  0  0  0
  9 15  1  0  0  0  0
 10 16  1  0  0  0  0
 10 17  1  0  0  0  0
 10 18  1  0  0  0  0
 19 20  1  0  0  0  0
 19 28  1  0  0  0  0
 19 29  1  0  0  0  0
 20 21  4  0  0  0  0
 20 25  4  0  0  0  0
 21 22  4  0  0  0  0
 21 30  1  0  0  0  0
 22 23  4  0  0  0  0
 22 27  1  0  0  0  0
 23 24  4  0  0  0  0
 23 26  1  0  0  0  0
 24 25  4  0  0  0  0
 24 31  1  0  0  0  0
 25 32  1  0  0  0  0
 26 33  1  0  0  0  0
 27 34  1  0  0  0  0
M  END
> <BCLConfClusterSize>
1

> <ConfClashScore>
0 

> <ConfOneFourInteractionScore>
-0.94165 

> <ConfScore>
-0.200202 

> <ConfScorePBest>
0.00709334 

> <ConfTolerance>
0.246221 

> <RosettaParamsInstructions>
M  ROOT 3
M  POLY_N_BB 3
M  POLY_CA_BB 4
M  POLY_C_BB 2
M  POLY_O_BB 5
M  POLY_IGNORE 9 10 11 12 13 14 15 16 17 18 
M  POLY_UPPER 6
M  POLY_LOWER 8
M  POLY_CHG 0
M  POLY_PROPERTIES ALPHA_AA L_AA PROTEIN AROMATIC POLYMER 
M  END

$$$$



 34 34  0  0  0  0  0  0  0  0999 V2000
   -2.8254    2.2259    2.6581 H   0  0  0  1  0  0  0  0  0  0  0  0
   -1.6437    0.4975    2.3298 C   0  0  0  1  0  0  0  0  0  0  0  0
   -0.9638    2.4612    3.5280 N   0  0  0  1  0  0  0  0  0  0  0  0
   -1.8027    2.0131    2.4265 C   0  0  0  1  0  0  0  0  0  0  0  0
   -2.6020   -0.2376    2.0977 O   0  0  0  1  0  0  0  0  0  0  0  0
   -0.3902    0.0758    2.5191 N   0  0  0  1  0  0  0  0  0  0  0  0
   -0.1500    2.9756    3.3450 H   0  0  0  1  0  0  0  0  0  0  0  0
   -1.3041    2.1700    4.8007 C   0  0  0  1  0  0  0  0  0  0  0  0
   -0.0528   -1.3357    2.6276 C   0  0  0  1  0  0  0  0  0  0  0  0
   -0.3972    2.7425    5.8725 C   0  0  0  1  0  0  0  0  0  0  0  0
   -2.2839    1.4853    5.0922 O   0  0  0  1  0  0  0  0  0  0  0  0
    0.3270    0.7401    2.5873 H   0  0  0  1  0  0  0  0  0  0  0  0
    0.8560   -1.5275    2.0964 H   0  0  0  1  0  0  0  0  0  0  0  0
   -0.8419   -1.9240    2.2081 H   0  0  0  1  0  0  0  0  0  0  0  0
    0.0755   -1.5932    3.6582 H   0  0  0  1  0  0  0  0  0  0  0  0
    0.6009    2.3868    5.7233 H   0  0  0  1  0  0  0  0  0  0  0  0
   -0.7452    2.4338    6.8361 H   0  0  0  1  0  0  0  0  0  0  0  0
   -0.4072    3.8109    5.8146 H   0  0  0  1  0  0  0  0  0  0  0  0
   -1.4700    2.6826    1.0895 C   0  0  0  1  0  0  0  0  0  0  0  0
   -1.9319    4.1235    1.0162 C   0  0  0  1  0  0  0  0  0  0  0  0
   -1.0019    5.1450    0.9001 C   0  0  0  1  0  0  0  0  0  0  0  0
   -1.4238    6.4597    0.8387 C   0  0  0  1  0  0  0  0  0  0  0  0
   -2.7769    6.7566    0.8878 C   0  0  0  1  0  0  0  0  0  0  0  0
   -3.7040    5.7381    1.0036 C   0  0  0  1  0  0  0  0  0  0  0  0
   -3.2811    4.4194    1.0652 C   0  0  0  1  0  0  0  0  0  0  0  0
   -3.2390    8.0291    0.8259 O   0  0  0  1  0  0  0  0  0  0  0  0
   -0.4953    7.4410    0.7306 O   0  0  0  1  0  0  0  0  0  0  0  0
   -1.9460    2.1321    0.3051 H   0  0  0  1  0  0  0  0  0  0  0  0
   -0.4093    2.6575    0.9506 H   0  0  0  1  0  0  0  0  0  0  0  0
    0.0131    4.9221    0.8592 H   0  0  0  1  0  0  0  0  0  0  0  0
   -4.7190    5.9610    1.0445 H   0  0  0  1  0  0  0  0  0  0  0  0
   -3.9789    3.6528    1.1483 H   0  0  0  1  0  0  0  0  0  0  0  0
   -4.1648    8.0466    1.0793 H   0  0  0  1  0  0  0  0  0  0  0  0
   -0.3058    7.6021   -0.1967 H   0  0  0  1  0  0  0  0  0  0  0  0
  1  4  1  0  0  0  0
  2  4  1  0  0  0  0
  2  5  2  0  0  0  0
  2  6  1  0  0  0  0
  3  4  1  0  0  0  0
  3  7  1  0  0  0  0
  3  8  1  0  0  0  0
  4 19  1  0  0  0  0
  6  9  1  0  0  0  0
  6 12  1  0  0  0  0
  8 10  1  0  0  0  0
  8 11  2  0  0  0  0
  9 13  1  0  0  0  0
  9 14  1  0  0  0  0
  9 15  1  0  0  0  0
 10 16  1  0  0  0  0
 10 17  1  0  0  0  0
 10 18  1  0  0  0  0
 19 20  1  0  0  0  0
 19 28  1  0  0  0  0
 19 29  1  0  0  0  0
 20 21  4  0  0  0  0
 20 25  4  0  0  0  0
 21 22  4  0  0  0  0
 21 30  1  0  0  0  0
 22 23  4  0  0  0  0
 22 27  1  0  0  0  0
 23 24  4  0  0  0  0
 23 26  1  0  0  0  0
 24 25  4  0  0  0  0
 24 31  1  0  0  0  0
 25 32  1  0  0  0  0
 26 33  1  0  0  0  0
 27 34  1  0  0  0  0
M  END
> <BCLConfClusterSize>
1

> <ConfClashScore>
0 

> <ConfOneFourInteractionScore>
-0.960318 

> <ConfScore>
-0.198945 

> <ConfScorePBest>
0.00706485 

> <ConfTolerance>
0.300928 

> <RosettaParamsInstructions>
M  ROOT 3
M  POLY_N_BB 3
M  POLY_CA_BB 4
M  POLY_C_BB 2
M  POLY_O_BB 5
M  POLY_IGNORE 9 10 11 12 13 14 15 16 17 18 
M  POLY_UPPER 6
M  POLY_LOWER 8
M  POLY_CHG 0
M  POLY_PROPERTIES ALPHA_AA L_AA PROTEIN AROMATIC POLYMER 
M  END

$$$$



 34 34  0  0  0  0  0  0  0  0999 V2000
    0.1263    3.0134   -0.2833 H   0  0  0  1  0  0  0  0  0  0  0  0
    0.2183    0.9678    0.1834 C   0  0  0  1  0  0  0  0  0  0  0  0
   -1.4332    2.0964   -1.2483 N   0  0  0  1  0  0  0  0  0  0  0  0
   -0.5824    2.2390   -0.0762 C   0  0  0  1  0  0  0  0  0  0  0  0
    1.3109    1.0143    0.7469 O   0  0  0  1  0  0  0  0  0  0  0  0
   -0.3019   -0.1953   -0.2188 N   0  0  0  1  0  0  0  0  0  0  0  0
   -2.4050    2.0624   -1.1260 H   0  0  0  1  0  0  0  0  0  0  0  0
   -0.9356    2.0101   -2.4852 C   0  0  0  1  0  0  0  0  0  0  0  0
    0.3983   -1.4598   -0.0499 C   0  0  0  1  0  0  0  0  0  0  0  0
   -1.9494    2.0887   -3.6100 C   0  0  0  1  0  0  0  0  0  0  0  0
    0.2632    1.8754   -2.7158 O   0  0  0  1  0  0  0  0  0  0  0  0
   -1.1856   -0.1969   -0.6423 H   0  0  0  1  0  0  0  0  0  0  0  0
    1.4339   -1.2718    0.1425 H   0  0  0  1  0  0  0  0  0  0  0  0
    0.3017   -2.0426   -0.9421 H   0  0  0  1  0  0  0  0  0  0  0  0
   -0.0259   -1.9949    0.7739 H   0  0  0  1  0  0  0  0  0  0  0  0
   -2.8837    1.6871   -3.2775 H   0  0  0  1  0  0  0  0  0  0  0  0
   -1.5967    1.5243   -4.4478 H   0  0  0  1  0  0  0  0  0  0  0  0
   -2.0831    3.1104   -3.8985 H   0  0  0  1  0  0  0  0  0  0  0  0
   -1.3643    2.6788    1.1654 C   0  0  0  1  0  0  0  0  0  0  0  0
   -1.9508    4.0591    1.0347 C   0  0  0  1  0  0  0  0  0  0  0  0
   -1.0775    5.1168    0.8344 C   0  0  0  1  0  0  0  0  0  0  0  0
   -1.5672    6.4036    0.7136 C   0  0  0  1  0  0  0  0  0  0  0  0
   -2.9318    6.6359    0.7875 C   0  0  0  1  0  0  0  0  0  0  0  0
   -3.8023    5.5812    0.9872 C   0  0  0  1  0  0  0  0  0  0  0  0
   -3.3114    4.2905    1.1083 C   0  0  0  1  0  0  0  0  0  0  0  0
   -3.3393    7.9216    0.6552 O   0  0  0  1  0  0  0  0  0  0  0  0
   -0.6931    7.4217    0.5235 O   0  0  0  1  0  0  0  0  0  0  0  0
   -0.7025    2.6682    2.0061 H   0  0  0  1  0  0  0  0  0  0  0  0
   -2.1615    1.9842    1.3296 H   0  0  0  1  0  0  0  0  0  0  0  0
   -0.0540    4.9421    0.7749 H   0  0  0  1  0  0  0  0  0  0  0  0
   -4.8258    5.7559    1.0466 H   0  0  0  1  0  0  0  0  0  0  0  0
   -3.9668    3.4964    1.2546 H   0  0  0  1  0  0  0  0  0  0  0  0
   -2.5893    8.4730    0.4207 H   0  0  0  1  0  0  0  0  0  0  0  0
   -1.0057    8.2030    0.9856 H   0  0  0  1  0  0  0  0  0  0  0  0
  1  4  1  0  0  0  0
  2  4  1  0  0  0  0
  2  5  2  0  0  0  0
  2  6  1  0  0  0  0
  3  4  1  0  0  0  0
  3  7  1  0  0  0  0
  3  8  1  0  0  0  0
  4 19  1  0  0  0  0
  6  9  1  0  0  0  0
  6 12  1  0  0  0  0
  8 10  1  0  0  0  0
  8 11  2  0  0  0  0
  9 13  1  0  0  0  0
  9 14  1  0  0  0  0
  9 15  1  0  0  0  0
 10 16  1  0  0  0  0
 10 17  1  0  0  0  0
 10 18  1  0  0  0  0
 19 20  1  0  0  0  0
 19 28  1  0  0  0  0
 19 29  1  0  0  0  0
 20 21  4  0  0  0  0
 20 25  4  0  0  0  0
 21 22  4  0  0  0  0
 21 30  1  0  0  0  0
 22 23  4  0  0  0  0
 22 27  1  0  0  0  0
 23 24  4  0  0  0  0
 23 26  1  0  0  0  0
 24 25  4  0  0  0  0
 24 31  1  0  0  0  0
 25 32  1  0  0  0  0
 26 33  1  0  0  0  0
 27 34  1  0  0  0  0
M  END
> <BCLConfClusterSize>
1

> <ConfClashScore>
0 

> <ConfOneFourInteractionScore>
-0.960318 

> <ConfScore>
-0.197757 

> <ConfScorePBest>
0.00703637 

> <ConfTolerance>
0.220256 

> <RosettaParamsInstructions>
M  ROOT 3
M  POLY_N_BB 3
M  POLY_CA_BB 4
M  POLY_C_BB 2
M  POLY_O_BB 5
M  POLY_IGNORE 9 10 11 12 13 14 15 16 17 18 
M  POLY_UPPER 6
M  POLY_LOWER 8
M  POLY_CHG 0
M  POLY_PROPERTIES ALPHA_AA L_AA PROTEIN AROMATIC POLYMER 
M  END

$$$$



 34 34  0  0  0  0  0  0  0  0999 V2000
   -2.6543    1.8020    2.5564 H   0  0  0  1  0  0  0  0  0  0  0  0
   -0.8029    0.7742    2.6581 C   0  0  0  1  0  0  0  0  0  0  0  0
   -1.3490    3.0243    3.5891 N   0  0  0  1  0  0  0  0  0  0  0  0
   -1.6173    2.0644    2.5304 C   0  0  0  1  0  0  0  0  0  0  0  0
   -1.3784   -0.2911    2.4398 O   0  0  0  1  0  0  0  0  0  0  0  0
    0.4764    0.9149    2.9992 N   0  0  0  1  0  0  0  0  0  0  0  0
   -0.9422    3.8848    3.3555 H   0  0  0  1  0  0  0  0  0  0  0  0
   -1.6371    2.7746    4.8668 C   0  0  0  1  0  0  0  0  0  0  0  0
    1.3397   -0.2258    3.2665 C   0  0  0  1  0  0  0  0  0  0  0  0
   -1.4375    3.9218    5.8380 C   0  0  0  1  0  0  0  0  0  0  0  0
   -2.1167    1.7042    5.2382 O   0  0  0  1  0  0  0  0  0  0  0  0
    0.8497    1.8180    3.0727 H   0  0  0  1  0  0  0  0  0  0  0  0
    0.7902   -0.9719    3.8017 H   0  0  0  1  0  0  0  0  0  0  0  0
    2.1765    0.0903    3.8536 H   0  0  0  1  0  0  0  0  0  0  0  0
    1.6870   -0.6347    2.3407 H   0  0  0  1  0  0  0  0  0  0  0  0
   -0.7261    3.6376    6.5851 H   0  0  0  1  0  0  0  0  0  0  0  0
   -2.3701    4.1591    6.3058 H   0  0  0  1  0  0  0  0  0  0  0  0
   -1.0755    4.7782    5.3085 H   0  0  0  1  0  0  0  0  0  0  0  0
   -1.3300    2.7096    1.1708 C   0  0  0  1  0  0  0  0  0  0  0  0
   -1.9435    4.0868    1.0261 C   0  0  0  1  0  0  0  0  0  0  0  0
   -1.0912    5.1524    0.7817 C   0  0  0  1  0  0  0  0  0  0  0  0
   -1.6026    6.4294    0.6473 C   0  0  0  1  0  0  0  0  0  0  0  0
   -2.9681    6.6438    0.7516 C   0  0  0  1  0  0  0  0  0  0  0  0
   -3.8177    5.5813    0.9952 C   0  0  0  1  0  0  0  0  0  0  0  0
   -3.3050    4.3005    1.1301 C   0  0  0  1  0  0  0  0  0  0  0  0
   -3.4458    7.9042    0.6108 O   0  0  0  1  0  0  0  0  0  0  0  0
   -0.8094    7.5030    0.4131 O   0  0  0  1  0  0  0  0  0  0  0  0
   -1.7263    2.0778    0.4035 H   0  0  0  1  0  0  0  0  0  0  0  0
   -0.2701    2.7946    1.0514 H   0  0  0  1  0  0  0  0  0  0  0  0
   -0.0671    4.9910    0.6995 H   0  0  0  1  0  0  0  0  0  0  0  0
   -4.8418    5.7427    1.0774 H   0  0  0  1  0  0  0  0  0  0  0  0
   -3.9448    3.5004    1.3094 H   0  0  0  1  0  0  0  0  0  0  0  0
   -2.7181    8.5048    0.4337 H   0  0  0  1  0  0  0  0  0  0  0  0
   -0.5941    7.9300    1.2455 H   0  0  0  1  0  0  0  0  0  0  0  0
  1  4  1  0  0  0  0
  2  4  1  0  0  0  0
  2  5  2  0  0  0  0
  2  6  1  0  0  0  0
  3  4  1  0  0  0  0
  3  7  1  0  0  0  0
  3  8  1  0  0  0  0
  4 19  1  0  0  0  0
  6  9  1  0  0  0  0
  6 12  1  0  0  0  0
  8 10  1  0  0  0  0
  8 11  2  0  0  0  0
  9 13  1  0  0  0  0
  9 14  1  0  0  0  0
  9 15  1  0  0  0  0
 10 16  1  0  0  0  0
 10 17  1  0  0  0  0
 10 18  1  0  0  0  0
 19 20  1  0  0  0  0
 19 28  1  0  0  0  0
 19 29  1  0  0  0  0
 20 21  4  0  0  0  0
 20 25  4  0  0  0  0
 21 22  4  0  0  0  0
 21 30  1  0  0  0  0
 22 23  4  0  0  0  0
 22 27  1  0  0  0  0
 23 24  4  0  0  0  0
 23 26  1  0  0  0  0
 24 25  4  0  0  0  0
 24 31  1  0  0  0  0
 25 32  1  0  0  0  0
 26 33  1  0  0  0  0
 27 34  1  0  0  0  0
M  END
> <BCLConfClusterSize>
1

> <ConfClashScore>
0 

> <ConfOneFourInteractionScore>
-0.9468 

> <ConfScore>
-0.195974 

> <ConfScorePBest>
0.00700789 

> <ConfTolerance>
0.381495 

> <RosettaParamsInstructions>
M  ROOT 3
M  POLY_N_BB 3
M  POLY_CA_BB 4
M  POLY_C_BB 2
M  POLY_O_BB 5
M  POLY_IGNORE 9 10 11 12 13 14 15 16 17 18 
M  POLY_UPPER 6
M  POLY_LOWER 8
M  POLY_CHG 0
M  POLY_PROPERTIES ALPHA_AA L_AA PROTEIN AROMATIC POLYMER 
M  END

$$$$



 34 34  0  0  0  0  0  0  0  0999 V2000
   -2.6108    2.0183   -0.7084 H   0  0  0  1  0  0  0  0  0  0  0  0
   -0.7414    2.5795   -1.4920 C   0  0  0  1  0  0  0  0  0  0  0  0
   -1.2256    0.5650   -0.2490 N   0  0  0  1  0  0  0  0  0  0  0  0
   -1.5892    1.9666   -0.3943 C   0  0  0  1  0  0  0  0  0  0  0  0
   -1.1039    3.5928   -2.0881 O   0  0  0  1  0  0  0  0  0  0  0  0
    0.4118    1.9468   -1.7601 N   0  0  0  1  0  0  0  0  0  0  0  0
   -0.9061    0.2297    0.6147 H   0  0  0  1  0  0  0  0  0  0  0  0
   -1.3303   -0.2971   -1.3299 C   0  0  0  1  0  0  0  0  0  0  0  0
    1.3748    2.3620   -2.7691 C   0  0  0  1  0  0  0  0  0  0  0  0
   -0.8817   -1.7230   -1.1732 C   0  0  0  1  0  0  0  0  0  0  0  0
   -1.7843    0.1320   -2.3750 O   0  0  0  1  0  0  0  0  0  0  0  0
    0.6210    1.1450   -1.2369 H   0  0  0  1  0  0  0  0  0  0  0  0
    1.3742    3.4293   -2.8457 H   0  0  0  1  0  0  0  0  0  0  0  0
    1.1069    1.9368   -3.7138 H   0  0  0  1  0  0  0  0  0  0  0  0
    2.3513    2.0253   -2.4899 H   0  0  0  1  0  0  0  0  0  0  0  0
   -0.4074   -1.8456   -0.2220 H   0  0  0  1  0  0  0  0  0  0  0  0
   -0.1885   -1.9661   -1.9512 H   0  0  0  1  0  0  0  0  0  0  0  0
   -1.7300   -2.3722   -1.2348 H   0  0  0  1  0  0  0  0  0  0  0  0
   -1.4820    2.6976    0.9233 C   0  0  0  1  0  0  0  0  0  0  0  0
   -1.9230    4.1364    0.9591 C   0  0  0  1  0  0  0  0  0  0  0  0
   -1.0259    5.1901    0.8785 C   0  0  0  1  0  0  0  0  0  0  0  0
   -1.4850    6.4931    0.9215 C   0  0  0  1  0  0  0  0  0  0  0  0
   -2.8427    6.7463    1.0398 C   0  0  0  1  0  0  0  0  0  0  0  0
   -3.7369    5.6956    1.1201 C   0  0  0  1  0  0  0  0  0  0  0  0
   -3.2768    4.3887    1.0770 C   0  0  0  1  0  0  0  0  0  0  0  0
   -3.3406    8.0060    1.0809 O   0  0  0  1  0  0  0  0  0  0  0  0
   -0.5879    7.5062    0.8463 O   0  0  0  1  0  0  0  0  0  0  0  0
   -0.4549    2.6700    1.2221 H   0  0  0  1  0  0  0  0  0  0  0  0
   -2.0755    2.1630    1.6352 H   0  0  0  1  0  0  0  0  0  0  0  0
   -0.0076    5.0002    0.7857 H   0  0  0  1  0  0  0  0  0  0  0  0
   -4.7552    5.8855    1.2129 H   0  0  0  1  0  0  0  0  0  0  0  0
   -3.9502    3.5982    1.1334 H   0  0  0  1  0  0  0  0  0  0  0  0
   -3.9123    8.1495    0.3231 H   0  0  0  1  0  0  0  0  0  0  0  0
   -0.1530    7.4862   -0.0093 H   0  0  0  1  0  0  0  0  0  0  0  0
  1  4  1  0  0  0  0
  2  4  1  0  0  0  0
  2  5  2  0  0  0  0
  2  6  1  0  0  0  0
  3  4  1  0  0  0  0
  3  7  1  0  0  0  0
  3  8  1  0  0  0  0
  4 19  1  0  0  0  0
  6  9  1  0  0  0  0
  6 12  1  0  0  0  0
  8 10  1  0  0  0  0
  8 11  2  0  0  0  0
  9 13  1  0  0  0  0
  9 14  1  0  0  0  0
  9 15  1  0  0  0  0
 10 16  1  0  0  0  0
 10 17  1  0  0  0  0
 10 18  1  0  0  0  0
 19 20  1  0  0  0  0
 19 28  1  0  0  0  0
 19 29  1  0  0  0  0
 20 21  4  0  0  0  0
 20 25  4  0  0  0  0
 21 22  4  0  0  0  0
 21 30  1  0  0  0  0
 22 23  4  0  0  0  0
 22 27  1  0  0  0  0
 23 24  4  0  0  0  0
 23 26  1  0  0  0  0
 24 25  4  0  0  0  0
 24 31  1  0  0  0  0
 25 32  1  0  0  0  0
 26 33  1  0  0  0  0
 27 34  1  0  0  0  0
M  END
> <BCLConfClusterSize>
1

> <ConfClashScore>
0 

> <ConfOneFourInteractionScore>
-0.960318 

> <ConfScore>
-0.194544 

> <ConfScorePBest>
0.00697941 

> <ConfTolerance>
0.233058 

> <RosettaParamsInstructions>
M  ROOT 3
M  POLY_N_BB 3
M  POLY_CA_BB 4
M  POLY_C_BB 2
M  POLY_O_BB 5
M  POLY_IGNORE 9 10 11 12 13 14 15 16 17 18 
M  POLY_UPPER 6
M  POLY_LOWER 8
M  POLY_CHG 0
M  POLY_PROPERTIES ALPHA_AA L_AA PROTEIN AROMATIC POLYMER 
M  END

$$$$



 34 34  0  0  0  0  0  0  0  0999 V2000
   -0.0839    2.7544   -0.5816 H   0  0  0  1  0  0  0  0  0  0  0  0
   -0.4116    0.7383   -0.0463 C   0  0  0  1  0  0  0  0  0  0  0  0
   -1.9472    2.2362   -1.3022 N   0  0  0  1  0  0  0  0  0  0  0  0
   -0.9163    2.1529   -0.2812 C   0  0  0  1  0  0  0  0  0  0  0  0
    0.7720    0.5117    0.1438 O   0  0  0  1  0  0  0  0  0  0  0  0
   -1.3422   -0.2203   -0.0630 N   0  0  0  1  0  0  0  0  0  0  0  0
   -2.8162    2.6228   -1.0663 H   0  0  0  1  0  0  0  0  0  0  0  0
   -1.7498    1.8009   -2.5603 C   0  0  0  1  0  0  0  0  0  0  0  0
   -1.0748   -1.6436    0.0802 C   0  0  0  1  0  0  0  0  0  0  0  0
   -2.8408    2.1454   -3.5554 C   0  0  0  1  0  0  0  0  0  0  0  0
   -0.7542    1.1628   -2.9000 O   0  0  0  1  0  0  0  0  0  0  0  0
   -2.2751    0.0559   -0.1805 H   0  0  0  1  0  0  0  0  0  0  0  0
   -0.6035   -2.0096   -0.8080 H   0  0  0  1  0  0  0  0  0  0  0  0
   -1.9959   -2.1654    0.2357 H   0  0  0  1  0  0  0  0  0  0  0  0
   -0.4285   -1.8024    0.9180 H   0  0  0  1  0  0  0  0  0  0  0  0
   -2.7901    1.4748   -4.3875 H   0  0  0  1  0  0  0  0  0  0  0  0
   -2.7060    3.1499   -3.8984 H   0  0  0  1  0  0  0  0  0  0  0  0
   -3.7963    2.0548   -3.0823 H   0  0  0  1  0  0  0  0  0  0  0  0
   -1.4500    2.7171    1.0253 C   0  0  0  1  0  0  0  0  0  0  0  0
   -1.9220    4.1453    0.9664 C   0  0  0  1  0  0  0  0  0  0  0  0
   -1.0596    5.2027    0.7218 C   0  0  0  1  0  0  0  0  0  0  0  0
   -1.5456    6.4960    0.6837 C   0  0  0  1  0  0  0  0  0  0  0  0
   -2.8961    6.7353    0.8847 C   0  0  0  1  0  0  0  0  0  0  0  0
   -3.7558    5.6810    1.1285 C   0  0  0  1  0  0  0  0  0  0  0  0
   -3.2686    4.3838    1.1668 C   0  0  0  1  0  0  0  0  0  0  0  0
   -3.3014    8.0273    0.8277 O   0  0  0  1  0  0  0  0  0  0  0  0
   -0.6439    7.4791    0.4449 O   0  0  0  1  0  0  0  0  0  0  0  0
   -0.6689    2.6574    1.7542 H   0  0  0  1  0  0  0  0  0  0  0  0
   -2.2746    2.1095    1.3349 H   0  0  0  1  0  0  0  0  0  0  0  0
   -0.0470    5.0229    0.5670 H   0  0  0  1  0  0  0  0  0  0  0  0
   -4.7684    5.8608    1.2833 H   0  0  0  1  0  0  0  0  0  0  0  0
   -3.9162    3.5901    1.3463 H   0  0  0  1  0  0  0  0  0  0  0  0
   -3.9093    8.1404    0.0934 H   0  0  0  1  0  0  0  0  0  0  0  0
    0.0047    7.4979    1.1524 H   0  0  0  1  0  0  0  0  0  0  0  0
  1  4  1  0  0  0  0
  2  4  1  0  0  0  0
  2  5  2  0  0  0  0
  2  6  1  0  0  0  0
  3  4  1  0  0  0  0
  3  7  1  0  0  0  0
  3  8  1  0  0  0  0
  4 19  1  0  0  0  0
  6  9  1  0  0  0  0
  6 12  1  0  0  0  0
  8 10  1  0  0  0  0
  8 11  2  0  0  0  0
  9 13  1  0  0  0  0
  9 14  1  0  0  0  0
  9 15  1  0  0  0  0
 10 16  1  0  0  0  0
 10 17  1  0  0  0  0
 10 18  1  0  0  0  0
 19 20  1  0  0  0  0
 19 28  1  0  0  0  0
 19 29  1  0  0  0  0
 20 21  4  0  0  0  0
 20 25  4  0  0  0  0
 21 22  4  0  0  0  0
 21 30  1  0  0  0  0
 22 23  4  0  0  0  0
 22 27  1  0  0  0  0
 23 24  4  0  0  0  0
 23 26  1  0  0  0  0
 24 25  4  0  0  0  0
 24 31  1  0  0  0  0
 25 32  1  0  0  0  0
 26 33  1  0  0  0  0
 27 34  1  0  0  0  0
M  END
> <BCLConfClusterSize>
1

> <ConfClashScore>
0 

> <ConfOneFourInteractionScore>
-0.960318 

> <ConfScore>
-0.193357 

> <ConfScorePBest>
0.00695093 

> <ConfTolerance>
0.361696 

> <RosettaParamsInstructions>
M  ROOT 3
M  POLY_N_BB 3
M  POLY_CA_BB 4
M  POLY_C_BB 2
M  POLY_O_BB 5
M  POLY_IGNORE 9 10 11 12 13 14 15 16 17 18 
M  POLY_UPPER 6
M  POLY_LOWER 8
M  POLY_CHG 0
M  POLY_PROPERTIES ALPHA_AA L_AA PROTEIN AROMATIC POLYMER 
M  END

$$$$



 34 34  0  0  0  0  0  0  0  0999 V2000
   -2.0831    2.2288    3.0497 H   0  0  0  1  0  0  0  0  0  0  0  0
   -0.6318    0.7831    2.5119 C   0  0  0  1  0  0  0  0  0  0  0  0
   -0.2143    3.1093    3.1363 N   0  0  0  1  0  0  0  0  0  0  0  0
   -1.1662    2.2122    2.4984 C   0  0  0  1  0  0  0  0  0  0  0  0
   -1.3666   -0.1655    2.7324 O   0  0  0  1  0  0  0  0  0  0  0  0
    0.6752    0.6499    2.2692 N   0  0  0  1  0  0  0  0  0  0  0  0
    0.4791    3.5479    2.6004 H   0  0  0  1  0  0  0  0  0  0  0  0
   -0.2860    3.3435    4.4928 C   0  0  0  1  0  0  0  0  0  0  0  0
    1.2651   -0.6752    2.1513 C   0  0  0  1  0  0  0  0  0  0  0  0
    0.8028    4.2008    5.0691 C   0  0  0  1  0  0  0  0  0  0  0  0
   -1.1934    2.8656    5.1472 O   0  0  0  1  0  0  0  0  0  0  0  0
    1.2378    1.4462    2.1703 H   0  0  0  1  0  0  0  0  0  0  0  0
    0.4943   -1.3944    1.9683 H   0  0  0  1  0  0  0  0  0  0  0  0
    1.7736   -0.9211    3.0601 H   0  0  0  1  0  0  0  0  0  0  0  0
    1.9613   -0.6844    1.3387 H   0  0  0  1  0  0  0  0  0  0  0  0
    0.5914    4.4028    6.0983 H   0  0  0  1  0  0  0  0  0  0  0  0
    0.8545    5.1226    4.5283 H   0  0  0  1  0  0  0  0  0  0  0  0
    1.7388    3.6882    4.9915 H   0  0  0  1  0  0  0  0  0  0  0  0
   -1.4633    2.6590    1.0729 C   0  0  0  1  0  0  0  0  0  0  0  0
   -1.9281    4.0882    0.9877 C   0  0  0  1  0  0  0  0  0  0  0  0
   -1.0561    5.1396    0.7512 C   0  0  0  1  0  0  0  0  0  0  0  0
   -1.5359    6.4342    0.6879 C   0  0  0  1  0  0  0  0  0  0  0  0
   -2.8897    6.6808    0.8555 C   0  0  0  1  0  0  0  0  0  0  0  0
   -3.7589    5.6324    1.0912 C   0  0  0  1  0  0  0  0  0  0  0  0
   -3.2779    4.3339    1.1548 C   0  0  0  1  0  0  0  0  0  0  0  0
   -3.4077    7.9317    0.7967 O   0  0  0  1  0  0  0  0  0  0  0  0
   -0.7224    7.4948    0.4643 O   0  0  0  1  0  0  0  0  0  0  0  0
   -2.2277    2.0276    0.6705 H   0  0  0  1  0  0  0  0  0  0  0  0
   -0.5715    2.5555    0.4908 H   0  0  0  1  0  0  0  0  0  0  0  0
   -0.0410    4.9542    0.6215 H   0  0  0  1  0  0  0  0  0  0  0  0
   -4.7740    5.8178    1.2209 H   0  0  0  1  0  0  0  0  0  0  0  0
   -3.9326    3.5447    1.3282 H   0  0  0  1  0  0  0  0  0  0  0  0
   -3.1663    8.3397   -0.0380 H   0  0  0  1  0  0  0  0  0  0  0  0
   -0.5255    7.9289    1.2976 H   0  0  0  1  0  0  0  0  0  0  0  0
  1  4  1  0  0  0  0
  2  4  1  0  0  0  0
  2  5  2  0  0  0  0
  2  6  1  0  0  0  0
  3  4  1  0  0  0  0
  3  7  1  0  0  0  0
  3  8  1  0  0  0  0
  4 19  1  0  0  0  0
  6  9  1  0  0  0  0
  6 12  1  0  0  0  0
  8 10  1  0  0  0  0
  8 11  2  0  0  0  0
  9 13  1  0  0  0  0
  9 14  1  0  0  0  0
  9 15  1  0  0  0  0
 10 16  1  0  0  0  0
 10 17  1  0  0  0  0
 10 18  1  0  0  0  0
 19 20  1  0  0  0  0
 19 28  1  0  0  0  0
 19 29  1  0  0  0  0
 20 21  4  0  0  0  0
 20 25  4  0  0  0  0
 21 22  4  0  0  0  0
 21 30  1  0  0  0  0
 22 23  4  0  0  0  0
 22 27  1  0  0  0  0
 23 24  4  0  0  0  0
 23 26  1  0  0  0  0
 24 25  4  0  0  0  0
 24 31  1  0  0  0  0
 25 32  1  0  0  0  0
 26 33  1  0  0  0  0
 27 34  1  0  0  0  0
M  END
> <BCLConfClusterSize>
1

> <ConfClashScore>
0 

> <ConfOneFourInteractionScore>
-0.960318 

> <ConfScore>
-0.191651 

> <ConfScorePBest>
0.00692245 

> <ConfTolerance>
0.279575 

> <RosettaParamsInstructions>
M  ROOT 3
M  POLY_N_BB 3
M  POLY_CA_BB 4
M  POLY_C_BB 2
M  POLY_O_BB 5
M  POLY_IGNORE 9 10 11 12 13 14 15 16 17 18 
M  POLY_UPPER 6
M  POLY_LOWER 8
M  POLY_CHG 0
M  POLY_PROPERTIES ALPHA_AA L_AA PROTEIN AROMATIC POLYMER 
M  END

$$$$



 34 34  0  0  0  0  0  0  0  0999 V2000
   -0.1081    2.7288   -0.4336 H   0  0  0  1  0  0  0  0  0  0  0  0
   -0.6402    0.7148   -0.0925 C   0  0  0  1  0  0  0  0  0  0  0  0
   -2.0108    2.4122   -1.1778 N   0  0  0  1  0  0  0  0  0  0  0  0
   -0.9912    2.1882   -0.1637 C   0  0  0  1  0  0  0  0  0  0  0  0
   -1.5005   -0.1365    0.1285 O   0  0  0  1  0  0  0  0  0  0  0  0
    0.6538    0.4137   -0.2849 N   0  0  0  1  0  0  0  0  0  0  0  0
   -2.9031    2.0221   -1.0685 H   0  0  0  1  0  0  0  0  0  0  0  0
   -1.7328    3.1485   -2.2574 C   0  0  0  1  0  0  0  0  0  0  0  0
    1.1364   -0.9590   -0.3144 C   0  0  0  1  0  0  0  0  0  0  0  0
   -2.9094    3.4639   -3.1604 C   0  0  0  1  0  0  0  0  0  0  0  0
   -0.6103    3.5502   -2.5165 O   0  0  0  1  0  0  0  0  0  0  0  0
    1.2958    1.1435   -0.4098 H   0  0  0  1  0  0  0  0  0  0  0  0
    0.3686   -1.5994   -0.6954 H   0  0  0  1  0  0  0  0  0  0  0  0
    1.3976   -1.2663    0.6767 H   0  0  0  1  0  0  0  0  0  0  0  0
    1.9978   -1.0204   -0.9461 H   0  0  0  1  0  0  0  0  0  0  0  0
   -3.6745    3.9512   -2.5929 H   0  0  0  1  0  0  0  0  0  0  0  0
   -3.2955    2.5554   -3.5731 H   0  0  0  1  0  0  0  0  0  0  0  0
   -2.5882    4.1078   -3.9523 H   0  0  0  1  0  0  0  0  0  0  0  0
   -1.4577    2.6956    1.2003 C   0  0  0  1  0  0  0  0  0  0  0  0
   -1.9209    4.1199    1.0502 C   0  0  0  1  0  0  0  0  0  0  0  0
   -1.0355    5.1802    0.9334 C   0  0  0  1  0  0  0  0  0  0  0  0
   -1.5153    6.4698    0.8032 C   0  0  0  1  0  0  0  0  0  0  0  0
   -2.8817    6.7025    0.7842 C   0  0  0  1  0  0  0  0  0  0  0  0
   -3.7643    5.6454    0.9007 C   0  0  0  1  0  0  0  0  0  0  0  0
   -3.2833    4.3519    1.0313 C   0  0  0  1  0  0  0  0  0  0  0  0
   -3.3639    7.9621    0.6518 O   0  0  0  1  0  0  0  0  0  0  0  0
   -0.6298    7.4901    0.6958 O   0  0  0  1  0  0  0  0  0  0  0  0
   -0.6471    2.6518    1.8974 H   0  0  0  1  0  0  0  0  0  0  0  0
   -2.2655    2.0892    1.5532 H   0  0  0  1  0  0  0  0  0  0  0  0
   -0.0104    5.0052    0.9436 H   0  0  0  1  0  0  0  0  0  0  0  0
   -4.7894    5.8203    0.8905 H   0  0  0  1  0  0  0  0  0  0  0  0
   -3.9475    3.5560    1.1149 H   0  0  0  1  0  0  0  0  0  0  0  0
   -3.4734    8.3563    1.5203 H   0  0  0  1  0  0  0  0  0  0  0  0
   -0.4060    7.6243   -0.2280 H   0  0  0  1  0  0  0  0  0  0  0  0
  1  4  1  0  0  0  0
  2  4  1  0  0  0  0
  2  5  2  0  0  0  0
  2  6  1  0  0  0  0
  3  4  1  0  0  0  0
  3  7  1  0  0  0  0
  3  8  1  0  0  0  0
  4 19  1  0  0  0  0
  6  9  1  0  0  0  0
  6 12  1  0  0  0  0
  8 10  1  0  0  0  0
  8 11  2  0  0  0  0
  9 13  1  0  0  0  0
  9 14  1  0  0  0  0
  9 15  1  0  0  0  0
 10 16  1  0  0  0  0
 10 17  1  0  0  0  0
 10 18  1  0  0  0  0
 19 20  1  0  0  0  0
 19 28  1  0  0  0  0
 19 29  1  0  0  0  0
 20 21  4  0  0  0  0
 20 25  4  0  0  0  0
 21 22  4  0  0  0  0
 21 30  1  0  0  0  0
 22 23  4  0  0  0  0
 22 27  1  0  0  0  0
 23 24  4  0  0  0  0
 23 26  1  0  0  0  0
 24 25  4  0  0  0  0
 24 31  1  0  0  0  0
 25 32  1  0  0  0  0
 26 33  1  0  0  0  0
 27 34  1  0  0  0  0
M  END
> <BCLConfClusterSize>
1

> <ConfClashScore>
0 

> <ConfOneFourInteractionScore>
-0.985807 

> <ConfScore>
-0.191474 

> <ConfScorePBest>
0.00689397 

> <ConfTolerance>
0.322094 

> <RosettaParamsInstructions>
M  ROOT 3
M  POLY_N_BB 3
M  POLY_CA_BB 4
M  POLY_C_BB 2
M  POLY_O_BB 5
M  POLY_IGNORE 9 10 11 12 13 14 15 16 17 18 
M  POLY_UPPER 6
M  POLY_LOWER 8
M  POLY_CHG 0
M  POLY_PROPERTIES ALPHA_AA L_AA PROTEIN AROMATIC POLYMER 
M  END

$$$$



 34 34  0  0  0  0  0  0  0  0999 V2000
   -0.3925    3.0440    2.8894 H   0  0  0  1  0  0  0  0  0  0  0  0
   -2.2459    2.1290    3.3573 C   0  0  0  1  0  0  0  0  0  0  0  0
   -0.2575    1.0261    2.4571 N   0  0  0  1  0  0  0  0  0  0  0  0
   -1.0078    2.2729    2.4751 C   0  0  0  1  0  0  0  0  0  0  0  0
   -2.6714    3.0791    4.0114 O   0  0  0  1  0  0  0  0  0  0  0  0
   -2.7586    0.8967    3.4169 N   0  0  0  1  0  0  0  0  0  0  0  0
   -0.2624    0.4829    1.6414 H   0  0  0  1  0  0  0  0  0  0  0  0
    0.4377    0.5961    3.5139 C   0  0  0  1  0  0  0  0  0  0  0  0
   -3.8054    0.5351    4.3609 C   0  0  0  1  0  0  0  0  0  0  0  0
    1.0476   -0.7859    3.3832 C   0  0  0  1  0  0  0  0  0  0  0  0
    0.5841    1.2635    4.5345 O   0  0  0  1  0  0  0  0  0  0  0  0
   -2.4178    0.2125    2.8036 H   0  0  0  1  0  0  0  0  0  0  0  0
   -4.3682    1.4070    4.6215 H   0  0  0  1  0  0  0  0  0  0  0  0
   -3.3628    0.1200    5.2422 H   0  0  0  1  0  0  0  0  0  0  0  0
   -4.4550   -0.1877    3.9131 H   0  0  0  1  0  0  0  0  0  0  0  0
    1.6122   -1.0119    4.2636 H   0  0  0  1  0  0  0  0  0  0  0  0
    1.6926   -0.8116    2.5299 H   0  0  0  1  0  0  0  0  0  0  0  0
    0.2685   -1.5095    3.2639 H   0  0  0  1  0  0  0  0  0  0  0  0
   -1.4038    2.6934    1.0564 C   0  0  0  1  0  0  0  0  0  0  0  0
   -1.9355    4.0999    0.9850 C   0  0  0  1  0  0  0  0  0  0  0  0
   -1.0707    5.1571    0.7481 C   0  0  0  1  0  0  0  0  0  0  0  0
   -1.5588    6.4488    0.6880 C   0  0  0  1  0  0  0  0  0  0  0  0
   -2.9137    6.6866    0.8593 C   0  0  0  1  0  0  0  0  0  0  0  0
   -3.7757    5.6324    1.0954 C   0  0  0  1  0  0  0  0  0  0  0  0
   -3.2864    4.3369    1.1558 C   0  0  0  1  0  0  0  0  0  0  0  0
   -3.4397    7.9344    0.8038 O   0  0  0  1  0  0  0  0  0  0  0  0
   -0.6928    7.4661    0.4604 O   0  0  0  1  0  0  0  0  0  0  0  0
   -2.1603    2.0250    0.7017 H   0  0  0  1  0  0  0  0  0  0  0  0
   -0.5414    2.6230    0.4270 H   0  0  0  1  0  0  0  0  0  0  0  0
   -0.0548    4.9784    0.6156 H   0  0  0  1  0  0  0  0  0  0  0  0
   -4.7916    5.8112    1.2279 H   0  0  0  1  0  0  0  0  0  0  0  0
   -3.9357    3.5433    1.3295 H   0  0  0  1  0  0  0  0  0  0  0  0
   -3.2027    8.3453   -0.0308 H   0  0  0  1  0  0  0  0  0  0  0  0
   -0.4173    7.8459    1.2980 H   0  0  0  1  0  0  0  0  0  0  0  0
  1  4  1  0  0  0  0
  2  4  1  0  0  0  0
  2  5  2  0  0  0  0
  2  6  1  0  0  0  0
  3  4  1  0  0  0  0
  3  7  1  0  0  0  0
  3  8  1  0  0  0  0
  4 19  1  0  0  0  0
  6  9  1  0  0  0  0
  6 12  1  0  0  0  0
  8 10  1  0  0  0  0
  8 11  2  0  0  0  0
  9 13  1  0  0  0  0
  9 14  1  0  0  0  0
  9 15  1  0  0  0  0
 10 16  1  0  0  0  0
 10 17  1  0  0  0  0
 10 18  1  0  0  0  0
 19 20  1  0  0  0  0
 19 28  1  0  0  0  0
 19 29  1  0  0  0  0
 20 21  4  0  0  0  0
 20 25  4  0  0  0  0
 21 22  4  0  0  0  0
 21 30  1  0  0  0  0
 22 23  4  0  0  0  0
 22 27  1  0  0  0  0
 23 24  4  0  0  0  0
 23 26  1  0  0  0  0
 24 25  4  0  0  0  0
 24 31  1  0  0  0  0
 25 32  1  0  0  0  0
 26 33  1  0  0  0  0
 27 34  1  0  0  0  0
M  END
> <BCLConfClusterSize>
1

> <ConfClashScore>
0 

> <ConfOneFourInteractionScore>
-0.960318 

> <ConfScore>
-0.190257 

> <ConfScorePBest>
0.00686549 

> <ConfTolerance>
0.226753 

> <RosettaParamsInstructions>
M  ROOT 3
M  POLY_N_BB 3
M  POLY_CA_BB 4
M  POLY_C_BB 2
M  POLY_O_BB 5
M  POLY_IGNORE 9 10 11 12 13 14 15 16 17 18 
M  POLY_UPPER 6
M  POLY_LOWER 8
M  POLY_CHG 0
M  POLY_PROPERTIES ALPHA_AA L_AA PROTEIN AROMATIC POLYMER 
M  END

$$$$



 34 34  0  0  0  0  0  0  0  0999 V2000
    0.0074    2.9696    2.5577 H   0  0  0  1  0  0  0  0  0  0  0  0
   -1.8172    2.4089    3.4541 C   0  0  0  1  0  0  0  0  0  0  0  0
   -0.2313    0.9435    2.2205 N   0  0  0  1  0  0  0  0  0  0  0  0
   -0.7882    2.2856    2.3473 C   0  0  0  1  0  0  0  0  0  0  0  0
   -1.8505    3.3955    4.1876 O   0  0  0  1  0  0  0  0  0  0  0  0
   -2.6675    1.3878    3.5712 N   0  0  0  1  0  0  0  0  0  0  0  0
   -0.4783    0.4236    1.4274 H   0  0  0  1  0  0  0  0  0  0  0  0
    0.5983    0.3640    3.1128 C   0  0  0  1  0  0  0  0  0  0  0  0
   -3.6765    1.3326    4.6185 C   0  0  0  1  0  0  0  0  0  0  0  0
    1.0031   -1.0736    2.8776 C   0  0  0  1  0  0  0  0  0  0  0  0
    1.0145    0.9849    4.0900 O   0  0  0  1  0  0  0  0  0  0  0  0
   -2.6107    0.6491    2.9297 H   0  0  0  1  0  0  0  0  0  0  0  0
   -3.6622    2.2453    5.1768 H   0  0  0  1  0  0  0  0  0  0  0  0
   -3.4672    0.5116    5.2721 H   0  0  0  1  0  0  0  0  0  0  0  0
   -4.6419    1.2002    4.1766 H   0  0  0  1  0  0  0  0  0  0  0  0
    1.2308   -1.2156    1.8418 H   0  0  0  1  0  0  0  0  0  0  0  0
    0.1984   -1.7208    3.1575 H   0  0  0  1  0  0  0  0  0  0  0  0
    1.8666   -1.3017    3.4669 H   0  0  0  1  0  0  0  0  0  0  0  0
   -1.4202    2.6990    1.0283 C   0  0  0  1  0  0  0  0  0  0  0  0
   -1.9362    4.1121    0.9748 C   0  0  0  1  0  0  0  0  0  0  0  0
   -1.0630    5.1605    0.7298 C   0  0  0  1  0  0  0  0  0  0  0  0
   -1.5367    6.4583    0.6862 C   0  0  0  1  0  0  0  0  0  0  0  0
   -2.8855    6.7109    0.8821 C   0  0  0  1  0  0  0  0  0  0  0  0
   -3.7559    5.6655    1.1263 C   0  0  0  1  0  0  0  0  0  0  0  0
   -3.2811    4.3639    1.1701 C   0  0  0  1  0  0  0  0  0  0  0  0
   -3.3264    7.9914    0.8293 O   0  0  0  1  0  0  0  0  0  0  0  0
   -0.6626    7.4667    0.4503 O   0  0  0  1  0  0  0  0  0  0  0  0
   -2.2410    2.0404    0.8348 H   0  0  0  1  0  0  0  0  0  0  0  0
   -0.6838    2.5872    0.2601 H   0  0  0  1  0  0  0  0  0  0  0  0
   -0.0517    4.9707    0.5789 H   0  0  0  1  0  0  0  0  0  0  0  0
   -4.7672    5.8554    1.2773 H   0  0  0  1  0  0  0  0  0  0  0  0
   -3.9368    3.5769    1.3499 H   0  0  0  1  0  0  0  0  0  0  0  0
   -3.5915    8.2022   -0.0690 H   0  0  0  1  0  0  0  0  0  0  0  0
   -0.2647    7.7461    1.2780 H   0  0  0  1  0  0  0  0  0  0  0  0
  1  4  1  0  0  0  0
  2  4  1  0  0  0  0
  2  5  2  0  0  0  0
  2  6  1  0  0  0  0
  3  4  1  0  0  0  0
  3  7  1  0  0  0  0
  3  8  1  0  0  0  0
  4 19  1  0  0  0  0
  6  9  1  0  0  0  0
  6 12  1  0  0  0  0
  8 10  1  0  0  0  0
  8 11  2  0  0  0  0
  9 13  1  0  0  0  0
  9 14  1  0  0  0  0
  9 15  1  0  0  0  0
 10 16  1  0  0  0  0
 10 17  1  0  0  0  0
 10 18  1  0  0  0  0
 19 20  1  0  0  0  0
 19 28  1  0  0  0  0
 19 29  1  0  0  0  0
 20 21  4  0  0  0  0
 20 25  4  0  0  0  0
 21 22  4  0  0  0  0
 21 30  1  0  0  0  0
 22 23  4  0  0  0  0
 22 27  1  0  0  0  0
 23 24  4  0  0  0  0
 23 26  1  0  0  0  0
 24 25  4  0  0  0  0
 24 31  1  0  0  0  0
 25 32  1  0  0  0  0
 26 33  1  0  0  0  0
 27 34  1  0  0  0  0
M  END
> <BCLConfClusterSize>
1

> <ConfClashScore>
0 

> <ConfOneFourInteractionScore>
-0.960318 

> <ConfScore>
-0.188721 

> <ConfScorePBest>
0.00683701 

> <ConfTolerance>
0.28647 

> <RosettaParamsInstructions>
M  ROOT 3
M  POLY_N_BB 3
M  POLY_CA_BB 4
M  POLY_C_BB 2
M  POLY_O_BB 5
M  POLY_IGNORE 9 10 11 12 13 14 15 16 17 18 
M  POLY_UPPER 6
M  POLY_LOWER 8
M  POLY_CHG 0
M  POLY_PROPERTIES ALPHA_AA L_AA PROTEIN AROMATIC POLYMER 
M  END

$$$$



 34 34  0  0  0  0  0  0  0  0999 V2000
   -0.7849    2.6724   -0.9182 H   0  0  0  1  0  0  0  0  0  0  0  0
   -0.4717    0.7457   -0.0798 C   0  0  0  1  0  0  0  0  0  0  0  0
   -2.6209    1.7185   -0.7469 N   0  0  0  1  0  0  0  0  0  0  0  0
   -1.2913    2.0200   -0.2379 C   0  0  0  1  0  0  0  0  0  0  0  0
    0.7348    0.7879    0.1547 O   0  0  0  1  0  0  0  0  0  0  0  0
   -1.1474   -0.3992   -0.2122 N   0  0  0  1  0  0  0  0  0  0  0  0
   -3.3338    1.5038   -0.1096 H   0  0  0  1  0  0  0  0  0  0  0  0
   -2.9030    1.7243   -2.0500 C   0  0  0  1  0  0  0  0  0  0  0  0
   -0.5048   -1.6994   -0.0928 C   0  0  0  1  0  0  0  0  0  0  0  0
   -4.3047    1.2378   -2.4109 C   0  0  0  1  0  0  0  0  0  0  0  0
   -2.0919    2.0211   -2.9232 O   0  0  0  1  0  0  0  0  0  0  0  0
   -2.1093   -0.3621   -0.3962 H   0  0  0  1  0  0  0  0  0  0  0  0
   -0.0009   -1.7637    0.8489 H   0  0  0  1  0  0  0  0  0  0  0  0
    0.2039   -1.8209   -0.8852 H   0  0  0  1  0  0  0  0  0  0  0  0
   -1.2448   -2.4698   -0.1543 H   0  0  0  1  0  0  0  0  0  0  0  0
   -5.0290    1.7790   -1.8387 H   0  0  0  1  0  0  0  0  0  0  0  0
   -4.3865    0.1934   -2.1933 H   0  0  0  1  0  0  0  0  0  0  0  0
   -4.4808    1.4002   -3.4538 H   0  0  0  1  0  0  0  0  0  0  0  0
   -1.3957    2.7146    1.1208 C   0  0  0  1  0  0  0  0  0  0  0  0
   -1.9384    4.1156    1.0266 C   0  0  0  1  0  0  0  0  0  0  0  0
   -1.0290    5.1552    0.9094 C   0  0  0  1  0  0  0  0  0  0  0  0
   -1.4781    6.4597    0.8251 C   0  0  0  1  0  0  0  0  0  0  0  0
   -2.8377    6.7279    0.8524 C   0  0  0  1  0  0  0  0  0  0  0  0
   -3.7442    5.6912    0.9694 C   0  0  0  1  0  0  0  0  0  0  0  0
   -3.2941    4.3829    1.0539 C   0  0  0  1  0  0  0  0  0  0  0  0
   -3.1565    8.0417    0.7573 O   0  0  0  1  0  0  0  0  0  0  0  0
   -0.5694    7.4593    0.7164 O   0  0  0  1  0  0  0  0  0  0  0  0
   -0.4199    2.7561    1.5579 H   0  0  0  1  0  0  0  0  0  0  0  0
   -2.0441    2.1397    1.7483 H   0  0  0  1  0  0  0  0  0  0  0  0
   -0.0090    4.9537    0.8848 H   0  0  0  1  0  0  0  0  0  0  0  0
   -4.7642    5.8928    0.9939 H   0  0  0  1  0  0  0  0  0  0  0  0
   -3.9765    3.6026    1.1378 H   0  0  0  1  0  0  0  0  0  0  0  0
   -3.9629    8.2123    1.2495 H   0  0  0  1  0  0  0  0  0  0  0  0
   -0.3236    7.5701   -0.2050 H   0  0  0  1  0  0  0  0  0  0  0  0
  1  4  1  0  0  0  0
  2  4  1  0  0  0  0
  2  5  2  0  0  0  0
  2  6  1  0  0  0  0
  3  4  1  0  0  0  0
  3  7  1  0  0  0  0
  3  8  1  0  0  0  0
  4 19  1  0  0  0  0
  6  9  1  0  0  0  0
  6 12  1  0  0  0  0
  8 10  1  0  0  0  0
  8 11  2  0  0  0  0
  9 13  1  0  0  0  0
  9 14  1  0  0  0  0
  9 15  1  0  0  0  0
 10 16  1  0  0  0  0
 10 17  1  0  0  0  0
 10 18  1  0  0  0  0
 19 20  1  0  0  0  0
 19 28  1  0  0  0  0
 19 29  1  0  0  0  0
 20 21  4  0  0  0  0
 20 25  4  0  0  0  0
 21 22  4  0  0  0  0
 21 30  1  0  0  0  0
 22 23  4  0  0  0  0
 22 27  1  0  0  0  0
 23 24  4  0  0  0  0
 23 26  1  0  0  0  0
 24 25  4  0  0  0  0
 24 31  1  0  0  0  0
 25 32  1  0  0  0  0
 26 33  1  0  0  0  0
 27 34  1  0  0  0  0
M  END
> <BCLConfClusterSize>
1

> <ConfClashScore>
0 

> <ConfOneFourInteractionScore>
-0.956443 

> <ConfScore>
-0.187132 

> <ConfScorePBest>
0.00680853 

> <ConfTolerance>
0.25023 

> <RosettaParamsInstructions>
M  ROOT 3
M  POLY_N_BB 3
M  POLY_CA_BB 4
M  POLY_C_BB 2
M  POLY_O_BB 5
M  POLY_IGNORE 9 10 11 12 13 14 15 16 17 18 
M  POLY_UPPER 6
M  POLY_LOWER 8
M  POLY_CHG 0
M  POLY_PROPERTIES ALPHA_AA L_AA PROTEIN AROMATIC POLYMER 
M  END

$$$$



 34 34  0  0  0  0  0  0  0  0999 V2000
   -2.4876    1.6028   -0.1744 H   0  0  0  1  0  0  0  0  0  0  0  0
   -0.8183    2.5112   -1.1121 C   0  0  0  1  0  0  0  0  0  0  0  0
   -0.7926    0.5205    0.3081 N   0  0  0  1  0  0  0  0  0  0  0  0
   -1.4628    1.7901    0.0696 C   0  0  0  1  0  0  0  0  0  0  0  0
   -1.4880    3.1817   -1.8804 O   0  0  0  1  0  0  0  0  0  0  0  0
    0.4944    2.2802   -1.2724 N   0  0  0  1  0  0  0  0  0  0  0  0
   -0.3757    0.3624    1.1808 H   0  0  0  1  0  0  0  0  0  0  0  0
   -0.7259   -0.4370   -0.6213 C   0  0  0  1  0  0  0  0  0  0  0  0
    1.2477    3.0128   -2.2791 C   0  0  0  1  0  0  0  0  0  0  0  0
   -0.0420   -1.7216   -0.1957 C   0  0  0  1  0  0  0  0  0  0  0  0
   -1.1842   -0.3030   -1.7551 O   0  0  0  1  0  0  0  0  0  0  0  0
    0.9463    1.6168   -0.7102 H   0  0  0  1  0  0  0  0  0  0  0  0
    0.6340    3.7861   -2.6919 H   0  0  0  1  0  0  0  0  0  0  0  0
    1.5481    2.3426   -3.0573 H   0  0  0  1  0  0  0  0  0  0  0  0
    2.1149    3.4485   -1.8285 H   0  0  0  1  0  0  0  0  0  0  0  0
    0.9982   -1.5343   -0.0290 H   0  0  0  1  0  0  0  0  0  0  0  0
   -0.1529   -2.4564   -0.9655 H   0  0  0  1  0  0  0  0  0  0  0  0
   -0.4887   -2.0807    0.7079 H   0  0  0  1  0  0  0  0  0  0  0  0
   -1.4270    2.6712    1.3222 C   0  0  0  1  0  0  0  0  0  0  0  0
   -1.9368    4.0661    1.0766 C   0  0  0  1  0  0  0  0  0  0  0  0
   -1.0449    5.0950    0.8171 C   0  0  0  1  0  0  0  0  0  0  0  0
   -1.5134    6.3765    0.5971 C   0  0  0  1  0  0  0  0  0  0  0  0
   -2.8754    6.6320    0.6305 C   0  0  0  1  0  0  0  0  0  0  0  0
   -3.7646    5.6060    0.8893 C   0  0  0  1  0  0  0  0  0  0  0  0
   -3.2949    4.3207    1.1100 C   0  0  0  1  0  0  0  0  0  0  0  0
   -3.2617    7.9105    0.4005 O   0  0  0  1  0  0  0  0  0  0  0  0
   -0.7180    7.4437    0.3416 O   0  0  0  1  0  0  0  0  0  0  0  0
   -0.4156    2.7338    1.6657 H   0  0  0  1  0  0  0  0  0  0  0  0
   -2.0330    2.2150    2.0769 H   0  0  0  1  0  0  0  0  0  0  0  0
   -0.0232    4.9027    0.7881 H   0  0  0  1  0  0  0  0  0  0  0  0
   -4.7863    5.7984    0.9184 H   0  0  0  1  0  0  0  0  0  0  0  0
   -3.9644    3.5480    1.3007 H   0  0  0  1  0  0  0  0  0  0  0  0
   -2.9669    8.4693    1.1233 H   0  0  0  1  0  0  0  0  0  0  0  0
   -0.9016    8.1396    0.9769 H   0  0  0  1  0  0  0  0  0  0  0  0
  1  4  1  0  0  0  0
  2  4  1  0  0  0  0
  2  5  2  0  0  0  0
  2  6  1  0  0  0  0
  3  4  1  0  0  0  0
  3  7  1  0  0  0  0
  3  8  1  0  0  0  0
  4 19  1  0  0  0  0
  6  9  1  0  0  0  0
  6 12  1  0  0  0  0
  8 10  1  0  0  0  0
  8 11  2  0  0  0  0
  9 13  1  0  0  0  0
  9 14  1  0  0  0  0
  9 15  1  0  0  0  0
 10 16  1  0  0  0  0
 10 17  1  0  0  0  0
 10 18  1  0  0  0  0
 19 20  1  0  0  0  0
 19 28  1  0  0  0  0
 19 29  1  0  0  0  0
 20 21  4  0  0  0  0
 20 25  4  0  0  0  0
 21 22  4  0  0  0  0
 21 30  1  0  0  0  0
 22 23  4  0  0  0  0
 22 27  1  0  0  0  0
 23 24  4  0  0  0  0
 23 26  1  0  0  0  0
 24 25  4  0  0  0  0
 24 31  1  0  0  0  0
 25 32  1  0  0  0  0
 26 33  1  0  0  0  0
 27 34  1  0  0  0  0
M  END
> <BCLConfClusterSize>
1

> <ConfClashScore>
0 

> <ConfOneFourInteractionScore>
-0.960318 

> <ConfScore>
-0.185936 

> <ConfScorePBest>
0.00678005 

> <ConfTolerance>
0.216373 

> <RosettaParamsInstructions>
M  ROOT 3
M  POLY_N_BB 3
M  POLY_CA_BB 4
M  POLY_C_BB 2
M  POLY_O_BB 5
M  POLY_IGNORE 9 10 11 12 13 14 15 16 17 18 
M  POLY_UPPER 6
M  POLY_LOWER 8
M  POLY_CHG 0
M  POLY_PROPERTIES ALPHA_AA L_AA PROTEIN AROMATIC POLYMER 
M  END

$$$$



 34 34  0  0  0  0  0  0  0  0999 V2000
   -1.9696    2.3704    3.1869 H   0  0  0  1  0  0  0  0  0  0  0  0
   -0.6493    0.8224    2.6641 C   0  0  0  1  0  0  0  0  0  0  0  0
   -0.0731    3.1672    3.1977 N   0  0  0  1  0  0  0  0  0  0  0  0
   -1.0687    2.2787    2.6169 C   0  0  0  1  0  0  0  0  0  0  0  0
    0.5060    0.4888    2.4546 O   0  0  0  1  0  0  0  0  0  0  0  0
   -1.6263   -0.0586    2.9486 N   0  0  0  1  0  0  0  0  0  0  0  0
    0.4968    3.6734    2.5817 H   0  0  0  1  0  0  0  0  0  0  0  0
    0.1226    3.3447    4.5074 C   0  0  0  1  0  0  0  0  0  0  0  0
   -1.3943   -1.4950    2.9752 C   0  0  0  1  0  0  0  0  0  0  0  0
    1.3117    4.2234    4.9157 C   0  0  0  1  0  0  0  0  0  0  0  0
   -0.6401    2.9069    5.3677 O   0  0  0  1  0  0  0  0  0  0  0  0
   -2.5252    0.2790    3.1446 H   0  0  0  1  0  0  0  0  0  0  0  0
   -0.5608   -1.7105    3.6105 H   0  0  0  1  0  0  0  0  0  0  0  0
   -1.1859   -1.8408    1.9842 H   0  0  0  1  0  0  0  0  0  0  0  0
   -2.2657   -1.9899    3.3502 H   0  0  0  1  0  0  0  0  0  0  0  0
    2.2167    3.8008    4.5319 H   0  0  0  1  0  0  0  0  0  0  0  0
    1.3670    4.2748    5.9831 H   0  0  0  1  0  0  0  0  0  0  0  0
    1.1810    5.2078    4.5171 H   0  0  0  1  0  0  0  0  0  0  0  0
   -1.3889    2.7149    1.1903 C   0  0  0  1  0  0  0  0  0  0  0  0
   -1.9321    4.1103    1.0494 C   0  0  0  1  0  0  0  0  0  0  0  0
   -1.0634    5.1857    0.9468 C   0  0  0  1  0  0  0  0  0  0  0  0
   -1.5634    6.4683    0.8227 C   0  0  0  1  0  0  0  0  0  0  0  0
   -2.9332    6.6788    0.7955 C   0  0  0  1  0  0  0  0  0  0  0  0
   -3.7991    5.6065    0.8978 C   0  0  0  1  0  0  0  0  0  0  0  0
   -3.2979    4.3201    1.0223 C   0  0  0  1  0  0  0  0  0  0  0  0
   -3.3988    7.9451    0.6677 O   0  0  0  1  0  0  0  0  0  0  0  0
   -0.6553    7.4703    0.7327 O   0  0  0  1  0  0  0  0  0  0  0  0
   -2.1146    2.0365    0.7928 H   0  0  0  1  0  0  0  0  0  0  0  0
   -0.4884    2.6517    0.6159 H   0  0  0  1  0  0  0  0  0  0  0  0
   -0.0356    5.0275    0.9632 H   0  0  0  1  0  0  0  0  0  0  0  0
   -4.8269    5.7647    0.8814 H   0  0  0  1  0  0  0  0  0  0  0  0
   -3.9496    3.5128    1.0952 H   0  0  0  1  0  0  0  0  0  0  0  0
   -3.1084    8.4704    1.4169 H   0  0  0  1  0  0  0  0  0  0  0  0
   -0.5266    7.7042   -0.1895 H   0  0  0  1  0  0  0  0  0  0  0  0
  1  4  1  0  0  0  0
  2  4  1  0  0  0  0
  2  5  2  0  0  0  0
  2  6  1  0  0  0  0
  3  4  1  0  0  0  0
  3  7  1  0  0  0  0
  3  8  1  0  0  0  0
  4 19  1  0  0  0  0
  6  9  1  0  0  0  0
  6 12  1  0  0  0  0
  8 10  1  0  0  0  0
  8 11  2  0  0  0  0
  9 13  1  0  0  0  0
  9 14  1  0  0  0  0
  9 15  1  0  0  0  0
 10 16  1  0  0  0  0
 10 17  1  0  0  0  0
 10 18  1  0  0  0  0
 19 20  1  0  0  0  0
 19 28  1  0  0  0  0
 19 29  1  0  0  0  0
 20 21  4  0  0  0  0
 20 25  4  0  0  0  0
 21 22  4  0  0  0  0
 21 30  1  0  0  0  0
 22 23  4  0  0  0  0
 22 27  1  0  0  0  0
 23 24  4  0  0  0  0
 23 26  1  0  0  0  0
 24 25  4  0  0  0  0
 24 31  1  0  0  0  0
 25 32  1  0  0  0  0
 26 33  1  0  0  0  0
 27 34  1  0  0  0  0
M  END
> <BCLConfClusterSize>
1

> <ConfClashScore>
0 

> <ConfOneFourInteractionScore>
-0.985807 

> <ConfScore>
-0.183491 

> <ConfScorePBest>
0.00675157 

> <ConfTolerance>
0.20047 

> <RosettaParamsInstructions>
M  ROOT 3
M  POLY_N_BB 3
M  POLY_CA_BB 4
M  POLY_C_BB 2
M  POLY_O_BB 5
M  POLY_IGNORE 9 10 11 12 13 14 15 16 17 18 
M  POLY_UPPER 6
M  POLY_LOWER 8
M  POLY_CHG 0
M  POLY_PROPERTIES ALPHA_AA L_AA PROTEIN AROMATIC POLYMER 
M  END

$$$$



 34 34  0  0  0  0  0  0  0  0999 V2000
   -1.7126    2.6905    3.2798 H   0  0  0  1  0  0  0  0  0  0  0  0
   -0.7467    0.9034    2.7188 C   0  0  0  1  0  0  0  0  0  0  0  0
    0.2924    3.0908    2.9784 N   0  0  0  1  0  0  0  0  0  0  0  0
   -0.9333    2.4002    2.6065 C   0  0  0  1  0  0  0  0  0  0  0  0
   -1.7112    0.1442    2.8018 O   0  0  0  1  0  0  0  0  0  0  0  0
    0.5248    0.4729    2.7213 N   0  0  0  1  0  0  0  0  0  0  0  0
    1.0065    3.1387    2.3089 H   0  0  0  1  0  0  0  0  0  0  0  0
    0.5198    3.6703    4.1754 C   0  0  0  1  0  0  0  0  0  0  0  0
    0.8680   -0.9368    2.8356 C   0  0  0  1  0  0  0  0  0  0  0  0
    1.8472    4.3720    4.3871 C   0  0  0  1  0  0  0  0  0  0  0  0
   -0.3219    3.6318    5.0689 O   0  0  0  1  0  0  0  0  0  0  0  0
    1.2471    1.1307    2.6434 H   0  0  0  1  0  0  0  0  0  0  0  0
    0.6243   -1.2852    3.8175 H   0  0  0  1  0  0  0  0  0  0  0  0
    1.9163   -1.0636    2.6624 H   0  0  0  1  0  0  0  0  0  0  0  0
    0.3158   -1.4979    2.1110 H   0  0  0  1  0  0  0  0  0  0  0  0
    1.8818    4.7801    5.3756 H   0  0  0  1  0  0  0  0  0  0  0  0
    1.9512    5.1610    3.6718 H   0  0  0  1  0  0  0  0  0  0  0  0
    2.6452    3.6701    4.2631 H   0  0  0  1  0  0  0  0  0  0  0  0
   -1.3948    2.7208    1.1908 C   0  0  0  1  0  0  0  0  0  0  0  0
   -1.9278    4.1311    1.0457 C   0  0  0  1  0  0  0  0  0  0  0  0
   -1.0484    5.1963    0.9285 C   0  0  0  1  0  0  0  0  0  0  0  0
   -1.5355    6.4835    0.8014 C   0  0  0  1  0  0  0  0  0  0  0  0
   -2.9032    6.7089    0.7858 C   0  0  0  1  0  0  0  0  0  0  0  0
   -3.7797    5.6467    0.9026 C   0  0  0  1  0  0  0  0  0  0  0  0
   -3.2915    4.3557    1.0301 C   0  0  0  1  0  0  0  0  0  0  0  0
   -3.4280    7.9518    0.6582 O   0  0  0  1  0  0  0  0  0  0  0  0
   -0.6174    7.4749    0.6969 O   0  0  0  1  0  0  0  0  0  0  0  0
   -2.1702    2.0343    0.9217 H   0  0  0  1  0  0  0  0  0  0  0  0
   -0.5647    2.6004    0.5265 H   0  0  0  1  0  0  0  0  0  0  0  0
   -0.0224    5.0269    0.9361 H   0  0  0  1  0  0  0  0  0  0  0  0
   -4.8058    5.8162    0.8950 H   0  0  0  1  0  0  0  0  0  0  0  0
   -3.9512    3.5561    1.1140 H   0  0  0  1  0  0  0  0  0  0  0  0
   -3.4608    8.3758    1.5188 H   0  0  0  1  0  0  0  0  0  0  0  0
   -0.3126    7.5349   -0.2115 H   0  0  0  1  0  0  0  0  0  0  0  0
  1  4  1  0  0  0  0
  2  4  1  0  0  0  0
  2  5  2  0  0  0  0
  2  6  1  0  0  0  0
  3  4  1  0  0  0  0
  3  7  1  0  0  0  0
  3  8  1  0  0  0  0
  4 19  1  0  0  0  0
  6  9  1  0  0  0  0
  6 12  1  0  0  0  0
  8 10  1  0  0  0  0
  8 11  2  0  0  0  0
  9 13  1  0  0  0  0
  9 14  1  0  0  0  0
  9 15  1  0  0  0  0
 10 16  1  0  0  0  0
 10 17  1  0  0  0  0
 10 18  1  0  0  0  0
 19 20  1  0  0  0  0
 19 28  1  0  0  0  0
 19 29  1  0  0  0  0
 20 21  4  0  0  0  0
 20 25  4  0  0  0  0
 21 22  4  0  0  0  0
 21 30  1  0  0  0  0
 22 23  4  0  0  0  0
 22 27  1  0  0  0  0
 23 24  4  0  0  0  0
 23 26  1  0  0  0  0
 24 25  4  0  0  0  0
 24 31  1  0  0  0  0
 25 32  1  0  0  0  0
 26 33  1  0  0  0  0
 27 34  1  0  0  0  0
M  END
> <BCLConfClusterSize>
1

> <ConfClashScore>
0 

> <ConfOneFourInteractionScore>
-0.937775 

> <ConfScore>
-0.183288 

> <ConfScorePBest>
0.00672309 

> <ConfTolerance>
0.269232 

> <RosettaParamsInstructions>
M  ROOT 3
M  POLY_N_BB 3
M  POLY_CA_BB 4
M  POLY_C_BB 2
M  POLY_O_BB 5
M  POLY_IGNORE 9 10 11 12 13 14 15 16 17 18 
M  POLY_UPPER 6
M  POLY_LOWER 8
M  POLY_CHG 0
M  POLY_PROPERTIES ALPHA_AA L_AA PROTEIN AROMATIC POLYMER 
M  END

$$$$



 34 34  0  0  0  0  0  0  0  0999 V2000
   -1.4357    2.8044    3.3079 H   0  0  0  1  0  0  0  0  0  0  0  0
   -0.6286    0.9095    2.8137 C   0  0  0  1  0  0  0  0  0  0  0  0
    0.5128    3.0661    2.6668 N   0  0  0  1  0  0  0  0  0  0  0  0
   -0.7802    2.4067    2.5616 C   0  0  0  1  0  0  0  0  0  0  0  0
   -1.5598    0.2495    3.2729 O   0  0  0  1  0  0  0  0  0  0  0  0
    0.5491    0.3361    2.5198 N   0  0  0  1  0  0  0  0  0  0  0  0
    0.8168    3.6319    1.9265 H   0  0  0  1  0  0  0  0  0  0  0  0
    1.2999    2.9271    3.7374 C   0  0  0  1  0  0  0  0  0  0  0  0
    0.8052   -1.0773    2.7531 C   0  0  0  1  0  0  0  0  0  0  0  0
    2.6620    3.5867    3.6437 C   0  0  0  1  0  0  0  0  0  0  0  0
    0.9585    2.3073    4.7438 O   0  0  0  1  0  0  0  0  0  0  0  0
    1.2611    0.8886    2.1348 H   0  0  0  1  0  0  0  0  0  0  0  0
    0.0755   -1.6630    2.2339 H   0  0  0  1  0  0  0  0  0  0  0  0
    0.7461   -1.2820    3.8016 H   0  0  0  1  0  0  0  0  0  0  0  0
    1.7824   -1.3263    2.3951 H   0  0  0  1  0  0  0  0  0  0  0  0
    2.6386    4.5282    4.1515 H   0  0  0  1  0  0  0  0  0  0  0  0
    2.9125    3.7427    2.6152 H   0  0  0  1  0  0  0  0  0  0  0  0
    3.3960    2.9547    4.0982 H   0  0  0  1  0  0  0  0  0  0  0  0
   -1.4119    2.6594    1.1932 C   0  0  0  1  0  0  0  0  0  0  0  0
   -1.9370    4.0614    1.0360 C   0  0  0  1  0  0  0  0  0  0  0  0
   -1.0587    5.1098    0.8099 C   0  0  0  1  0  0  0  0  0  0  0  0
   -1.5411    6.3975    0.6710 C   0  0  0  1  0  0  0  0  0  0  0  0
   -2.9034    6.6400    0.7524 C   0  0  0  1  0  0  0  0  0  0  0  0
   -3.7790    5.5947    0.9779 C   0  0  0  1  0  0  0  0  0  0  0  0
   -3.2954    4.3031    1.1172 C   0  0  0  1  0  0  0  0  0  0  0  0
   -3.4240    7.8840    0.6177 O   0  0  0  1  0  0  0  0  0  0  0  0
   -0.7218    7.4551    0.4542 O   0  0  0  1  0  0  0  0  0  0  0  0
   -2.2237    1.9749    1.0611 H   0  0  0  1  0  0  0  0  0  0  0  0
   -0.6724    2.4862    0.4395 H   0  0  0  1  0  0  0  0  0  0  0  0
   -0.0369    4.9273    0.7448 H   0  0  0  1  0  0  0  0  0  0  0  0
   -4.8008    5.7771    1.0429 H   0  0  0  1  0  0  0  0  0  0  0  0
   -3.9547    3.5160    1.2828 H   0  0  0  1  0  0  0  0  0  0  0  0
   -2.7136    8.5163    0.4875 H   0  0  0  1  0  0  0  0  0  0  0  0
   -0.9009    8.1379    1.1048 H   0  0  0  1  0  0  0  0  0  0  0  0
  1  4  1  0  0  0  0
  2  4  1  0  0  0  0
  2  5  2  0  0  0  0
  2  6  1  0  0  0  0
  3  4  1  0  0  0  0
  3  7  1  0  0  0  0
  3  8  1  0  0  0  0
  4 19  1  0  0  0  0
  6  9  1  0  0  0  0
  6 12  1  0  0  0  0
  8 10  1  0  0  0  0
  8 11  2  0  0  0  0
  9 13  1  0  0  0  0
  9 14  1  0  0  0  0
  9 15  1  0  0  0  0
 10 16  1  0  0  0  0
 10 17  1  0  0  0  0
 10 18  1  0  0  0  0
 19 20  1  0  0  0  0
 19 28  1  0  0  0  0
 19 29  1  0  0  0  0
 20 21  4  0  0  0  0
 20 25  4  0  0  0  0
 21 22  4  0  0  0  0
 21 30  1  0  0  0  0
 22 23  4  0  0  0  0
 22 27  1  0  0  0  0
 23 24  4  0  0  0  0
 23 26  1  0  0  0  0
 24 25  4  0  0  0  0
 24 31  1  0  0  0  0
 25 32  1  0  0  0  0
 26 33  1  0  0  0  0
 27 34  1  0  0  0  0
M  END
> <BCLConfClusterSize>
1

> <ConfClashScore>
0 

> <ConfOneFourInteractionScore>
-0.956443 

> <ConfScore>
-0.181072 

> <ConfScorePBest>
0.0066946 

> <ConfTolerance>
0.260469 

> <RosettaParamsInstructions>
M  ROOT 3
M  POLY_N_BB 3
M  POLY_CA_BB 4
M  POLY_C_BB 2
M  POLY_O_BB 5
M  POLY_IGNORE 9 10 11 12 13 14 15 16 17 18 
M  POLY_UPPER 6
M  POLY_LOWER 8
M  POLY_CHG 0
M  POLY_PROPERTIES ALPHA_AA L_AA PROTEIN AROMATIC POLYMER 
M  END

$$$$



 34 34  0  0  0  0  0  0  0  0999 V2000
   -0.5273    2.5759   -0.8181 H   0  0  0  1  0  0  0  0  0  0  0  0
   -0.5981    0.5928   -0.1000 C   0  0  0  1  0  0  0  0  0  0  0  0
   -2.4839    1.9199   -0.9346 N   0  0  0  1  0  0  0  0  0  0  0  0
   -1.2032    1.9755   -0.2458 C   0  0  0  1  0  0  0  0  0  0  0  0
    0.3815    0.3979    0.6148 O   0  0  0  1  0  0  0  0  0  0  0  0
   -1.2007   -0.3839   -0.7964 N   0  0  0  1  0  0  0  0  0  0  0  0
   -3.2697    1.6600   -0.4099 H   0  0  0  1  0  0  0  0  0  0  0  0
   -2.6710    2.1994   -2.2412 C   0  0  0  1  0  0  0  0  0  0  0  0
   -0.6455   -1.7265   -0.8931 C   0  0  0  1  0  0  0  0  0  0  0  0
   -4.0949    2.2805   -2.7561 C   0  0  0  1  0  0  0  0  0  0  0  0
   -1.7177    2.3831   -2.9935 O   0  0  0  1  0  0  0  0  0  0  0  0
   -2.0435   -0.1864   -1.2558 H   0  0  0  1  0  0  0  0  0  0  0  0
   -0.5654   -2.1512    0.0857 H   0  0  0  1  0  0  0  0  0  0  0  0
    0.3247   -1.6795   -1.3418 H   0  0  0  1  0  0  0  0  0  0  0  0
   -1.2880   -2.3354   -1.4943 H   0  0  0  1  0  0  0  0  0  0  0  0
   -4.5592    1.3199   -2.6752 H   0  0  0  1  0  0  0  0  0  0  0  0
   -4.0863    2.5871   -3.7811 H   0  0  0  1  0  0  0  0  0  0  0  0
   -4.6440    2.9918   -2.1751 H   0  0  0  1  0  0  0  0  0  0  0  0
   -1.4080    2.6557    1.1079 C   0  0  0  1  0  0  0  0  0  0  0  0
   -1.9418    4.0581    0.9884 C   0  0  0  1  0  0  0  0  0  0  0  0
   -1.0564    5.1231    0.9302 C   0  0  0  1  0  0  0  0  0  0  0  0
   -1.5352    6.4196    0.9145 C   0  0  0  1  0  0  0  0  0  0  0  0
   -2.9007    6.6548    0.9515 C   0  0  0  1  0  0  0  0  0  0  0  0
   -3.7834    5.5928    1.0096 C   0  0  0  1  0  0  0  0  0  0  0  0
   -3.3034    4.2925    1.0253 C   0  0  0  1  0  0  0  0  0  0  0  0
   -3.3457    7.9347    0.9298 O   0  0  0  1  0  0  0  0  0  0  0  0
   -0.7469    7.5209    0.8639 O   0  0  0  1  0  0  0  0  0  0  0  0
   -0.4675    2.6915    1.6169 H   0  0  0  1  0  0  0  0  0  0  0  0
   -2.1015    2.0749    1.6794 H   0  0  0  1  0  0  0  0  0  0  0  0
   -0.0319    4.9467    0.8983 H   0  0  0  1  0  0  0  0  0  0  0  0
   -4.8078    5.7694    1.0414 H   0  0  0  1  0  0  0  0  0  0  0  0
   -3.9678    3.4934    1.0649 H   0  0  0  1  0  0  0  0  0  0  0  0
   -2.6977    8.4919    0.4926 H   0  0  0  1  0  0  0  0  0  0  0  0
   -0.9526    8.0261    0.0739 H   0  0  0  1  0  0  0  0  0  0  0  0
  1  4  1  0  0  0  0
  2  4  1  0  0  0  0
  2  5  2  0  0  0  0
  2  6  1  0  0  0  0
  3  4  1  0  0  0  0
  3  7  1  0  0  0  0
  3  8  1  0  0  0  0
  4 19  1  0  0  0  0
  6  9  1  0  0  0  0
  6 12  1  0  0  0  0
  8 10  1  0  0  0  0
  8 11  2  0  0  0  0
  9 13  1  0  0  0  0
  9 14  1  0  0  0  0
  9 15  1  0  0  0  0
 10 16  1  0  0  0  0
 10 17  1  0  0  0  0
 10 18  1  0  0  0  0
 19 20  1  0  0  0  0
 19 28  1  0  0  0  0
 19 29  1  0  0  0  0
 20 21  4  0  0  0  0
 20 25  4  0  0  0  0
 21 22  4  0  0  0  0
 21 30  1  0  0  0  0
 22 23  4  0  0  0  0
 22 27  1  0  0  0  0
 23 24  4  0  0  0  0
 23 26  1  0  0  0  0
 24 25  4  0  0  0  0
 24 31  1  0  0  0  0
 25 32  1  0  0  0  0
 26 33  1  0  0  0  0
 27 34  1  0  0  0  0
M  END
> <BCLConfClusterSize>
1

> <ConfClashScore>
0 

> <ConfOneFourInteractionScore>
-0.94165 

> <ConfScore>
-0.178659 

> <ConfScorePBest>
0.00666612 

> <ConfTolerance>
0.251723 

> <RosettaParamsInstructions>
M  ROOT 3
M  POLY_N_BB 3
M  POLY_CA_BB 4
M  POLY_C_BB 2
M  POLY_O_BB 5
M  POLY_IGNORE 9 10 11 12 13 14 15 16 17 18 
M  POLY_UPPER 6
M  POLY_LOWER 8
M  POLY_CHG 0
M  POLY_PROPERTIES ALPHA_AA L_AA PROTEIN AROMATIC POLYMER 
M  END

$$$$



 34 34  0  0  0  0  0  0  0  0999 V2000
   -0.6909    2.5592   -0.7880 H   0  0  0  1  0  0  0  0  0  0  0  0
   -0.6532    0.6132    0.0244 C   0  0  0  1  0  0  0  0  0  0  0  0
   -2.6030    1.7925   -0.8064 N   0  0  0  1  0  0  0  0  0  0  0  0
   -1.3176    1.9735   -0.1485 C   0  0  0  1  0  0  0  0  0  0  0  0
    0.5687    0.4934   -0.0536 O   0  0  0  1  0  0  0  0  0  0  0  0
   -1.4402   -0.4477    0.2637 N   0  0  0  1  0  0  0  0  0  0  0  0
   -3.3870    1.5252   -0.2826 H   0  0  0  1  0  0  0  0  0  0  0  0
   -2.7177    1.9921   -2.1358 C   0  0  0  1  0  0  0  0  0  0  0  0
   -0.9109   -1.7986    0.3764 C   0  0  0  1  0  0  0  0  0  0  0  0
   -4.0731    1.7648   -2.7764 C   0  0  0  1  0  0  0  0  0  0  0  0
   -1.7525    2.3480   -2.8106 O   0  0  0  1  0  0  0  0  0  0  0  0
   -2.4047   -0.3076    0.3660 H   0  0  0  1  0  0  0  0  0  0  0  0
   -0.3314   -2.0289   -0.4931 H   0  0  0  1  0  0  0  0  0  0  0  0
   -1.7208   -2.4930    0.4592 H   0  0  0  1  0  0  0  0  0  0  0  0
   -0.2913   -1.8672    1.2461 H   0  0  0  1  0  0  0  0  0  0  0  0
   -4.4167    2.6767   -3.2183 H   0  0  0  1  0  0  0  0  0  0  0  0
   -4.7707    1.4451   -2.0308 H   0  0  0  1  0  0  0  0  0  0  0  0
   -3.9883    1.0123   -3.5323 H   0  0  0  1  0  0  0  0  0  0  0  0
   -1.4217    2.7024    1.1848 C   0  0  0  1  0  0  0  0  0  0  0  0
   -1.9235    4.1149    1.0470 C   0  0  0  1  0  0  0  0  0  0  0  0
   -1.0673    5.2006    0.9479 C   0  0  0  1  0  0  0  0  0  0  0  0
   -1.5821    6.4777    0.8284 C   0  0  0  1  0  0  0  0  0  0  0  0
   -2.9542    6.6725    0.8022 C   0  0  0  1  0  0  0  0  0  0  0  0
   -3.8077    5.5899    0.9010 C   0  0  0  1  0  0  0  0  0  0  0  0
   -3.2917    4.3090    1.0209 C   0  0  0  1  0  0  0  0  0  0  0  0
   -3.3862    7.9510    0.6776 O   0  0  0  1  0  0  0  0  0  0  0  0
   -0.7247    7.5235    0.7383 O   0  0  0  1  0  0  0  0  0  0  0  0
   -0.4516    2.7281    1.6355 H   0  0  0  1  0  0  0  0  0  0  0  0
   -2.0950    2.1619    1.8168 H   0  0  0  1  0  0  0  0  0  0  0  0
   -0.0378    5.0542    0.9635 H   0  0  0  1  0  0  0  0  0  0  0  0
   -4.8372    5.7364    0.8854 H   0  0  0  1  0  0  0  0  0  0  0  0
   -3.9340    3.4940    1.0912 H   0  0  0  1  0  0  0  0  0  0  0  0
   -3.0181    8.4841    1.3860 H   0  0  0  1  0  0  0  0  0  0  0  0
   -0.4929    7.6695   -0.1817 H   0  0  0  1  0  0  0  0  0  0  0  0
  1  4  1  0  0  0  0
  2  4  1  0  0  0  0
  2  5  2  0  0  0  0
  2  6  1  0  0  0  0
  3  4  1  0  0  0  0
  3  7  1  0  0  0  0
  3  8  1  0  0  0  0
  4 19  1  0  0  0  0
  6  9  1  0  0  0  0
  6 12  1  0  0  0  0
  8 10  1  0  0  0  0
  8 11  2  0  0  0  0
  9 13  1  0  0  0  0
  9 14  1  0  0  0  0
  9 15  1  0  0  0  0
 10 16  1  0  0  0  0
 10 17  1  0  0  0  0
 10 18  1  0  0  0  0
 19 20  1  0  0  0  0
 19 28  1  0  0  0  0
 19 29  1  0  0  0  0
 20 21  4  0  0  0  0
 20 25  4  0  0  0  0
 21 22  4  0  0  0  0
 21 30  1  0  0  0  0
 22 23  4  0  0  0  0
 22 27  1  0  0  0  0
 23 24  4  0  0  0  0
 23 26  1  0  0  0  0
 24 25  4  0  0  0  0
 24 31  1  0  0  0  0
 25 32  1  0  0  0  0
 26 33  1  0  0  0  0
 27 34  1  0  0  0  0
M  END
> <BCLConfClusterSize>
1

> <ConfClashScore>
0 

> <ConfOneFourInteractionScore>
-0.960318 

> <ConfScore>
-0.175338 

> <ConfScorePBest>
0.00663764 

> <ConfTolerance>
0.295226 

> <RosettaParamsInstructions>
M  ROOT 3
M  POLY_N_BB 3
M  POLY_CA_BB 4
M  POLY_C_BB 2
M  POLY_O_BB 5
M  POLY_IGNORE 9 10 11 12 13 14 15 16 17 18 
M  POLY_UPPER 6
M  POLY_LOWER 8
M  POLY_CHG 0
M  POLY_PROPERTIES ALPHA_AA L_AA PROTEIN AROMATIC POLYMER 
M  END

$$$$



 34 34  0  0  0  0  0  0  0  0999 V2000
   -2.3090    1.8937   -0.4997 H   0  0  0  1  0  0  0  0  0  0  0  0
   -0.2664    2.2172   -0.8921 C   0  0  0  1  0  0  0  0  0  0  0  0
   -1.2703    0.3883    0.4432 N   0  0  0  1  0  0  0  0  0  0  0  0
   -1.3898    1.7804    0.0361 C   0  0  0  1  0  0  0  0  0  0  0  0
   -0.4634    3.0016   -1.8164 O   0  0  0  1  0  0  0  0  0  0  0  0
    0.9165    1.6701   -0.5982 N   0  0  0  1  0  0  0  0  0  0  0  0
   -1.1350    0.2049    1.3963 H   0  0  0  1  0  0  0  0  0  0  0  0
   -1.3310   -0.6569   -0.3834 C   0  0  0  1  0  0  0  0  0  0  0  0
    2.1100    1.9174   -1.3993 C   0  0  0  1  0  0  0  0  0  0  0  0
   -1.2932   -2.0216    0.2765 C   0  0  0  1  0  0  0  0  0  0  0  0
   -1.4120   -0.5417   -1.5952 O   0  0  0  1  0  0  0  0  0  0  0  0
    0.9846    1.0821    0.1829 H   0  0  0  1  0  0  0  0  0  0  0  0
    1.8234    2.1667   -2.3996 H   0  0  0  1  0  0  0  0  0  0  0  0
    2.7194    1.0380   -1.4118 H   0  0  0  1  0  0  0  0  0  0  0  0
    2.6627    2.7289   -0.9742 H   0  0  0  1  0  0  0  0  0  0  0  0
   -1.1951   -2.7784   -0.4735 H   0  0  0  1  0  0  0  0  0  0  0  0
   -2.1991   -2.1779    0.8241 H   0  0  0  1  0  0  0  0  0  0  0  0
   -0.4589   -2.0715    0.9445 H   0  0  0  1  0  0  0  0  0  0  0  0
   -1.4690    2.6701    1.2543 C   0  0  0  1  0  0  0  0  0  0  0  0
   -1.9347    4.0873    1.0522 C   0  0  0  1  0  0  0  0  0  0  0  0
   -1.0153    5.0862    0.7720 C   0  0  0  1  0  0  0  0  0  0  0  0
   -1.4430    6.3881    0.5919 C   0  0  0  1  0  0  0  0  0  0  0  0
   -2.7917    6.6940    0.6861 C   0  0  0  1  0  0  0  0  0  0  0  0
   -3.7082    5.6980    0.9655 C   0  0  0  1  0  0  0  0  0  0  0  0
   -3.2795    4.3922    1.1462 C   0  0  0  1  0  0  0  0  0  0  0  0
   -3.1377    7.9899    0.4925 O   0  0  0  1  0  0  0  0  0  0  0  0
   -0.4878    7.3121    0.3263 O   0  0  0  1  0  0  0  0  0  0  0  0
   -0.4899    2.7130    1.6838 H   0  0  0  1  0  0  0  0  0  0  0  0
   -2.1422    2.2074    1.9455 H   0  0  0  1  0  0  0  0  0  0  0  0
   -0.0038    4.8560    0.6973 H   0  0  0  1  0  0  0  0  0  0  0  0
   -4.7196    5.9282    1.0402 H   0  0  0  1  0  0  0  0  0  0  0  0
   -3.9696    3.6421    1.3525 H   0  0  0  1  0  0  0  0  0  0  0  0
   -3.9394    8.1843    0.9835 H   0  0  0  1  0  0  0  0  0  0  0  0
   -0.5799    8.0513    0.9318 H   0  0  0  1  0  0  0  0  0  0  0  0
  1  4  1  0  0  0  0
  2  4  1  0  0  0  0
  2  5  2  0  0  0  0
  2  6  1  0  0  0  0
  3  4  1  0  0  0  0
  3  7  1  0  0  0  0
  3  8  1  0  0  0  0
  4 19  1  0  0  0  0
  6  9  1  0  0  0  0
  6 12  1  0  0  0  0
  8 10  1  0  0  0  0
  8 11  2  0  0  0  0
  9 13  1  0  0  0  0
  9 14  1  0  0  0  0
  9 15  1  0  0  0  0
 10 16  1  0  0  0  0
 10 17  1  0  0  0  0
 10 18  1  0  0  0  0
 19 20  1  0  0  0  0
 19 28  1  0  0  0  0
 19 29  1  0  0  0  0
 20 21  4  0  0  0  0
 20 25  4  0  0  0  0
 21 22  4  0  0  0  0
 21 30  1  0  0  0  0
 22 23  4  0  0  0  0
 22 27  1  0  0  0  0
 23 24  4  0  0  0  0
 23 26  1  0  0  0  0
 24 25  4  0  0  0  0
 24 31  1  0  0  0  0
 25 32  1  0  0  0  0
 26 33  1  0  0  0  0
 27 34  1  0  0  0  0
M  END
> <BCLConfClusterSize>
1

> <ConfClashScore>
0 

> <ConfOneFourInteractionScore>
-0.960318 

> <ConfScore>
-0.174341 

> <ConfScorePBest>
0.00660916 

> <ConfTolerance>
0.339771 

> <RosettaParamsInstructions>
M  ROOT 3
M  POLY_N_BB 3
M  POLY_CA_BB 4
M  POLY_C_BB 2
M  POLY_O_BB 5
M  POLY_IGNORE 9 10 11 12 13 14 15 16 17 18 
M  POLY_UPPER 6
M  POLY_LOWER 8
M  POLY_CHG 0
M  POLY_PROPERTIES ALPHA_AA L_AA PROTEIN AROMATIC POLYMER 
M  END

$$$$



 34 34  0  0  0  0  0  0  0  0999 V2000
   -0.0043    2.6431   -0.3970 H   0  0  0  1  0  0  0  0  0  0  0  0
   -0.6102    0.6445   -0.0240 C   0  0  0  1  0  0  0  0  0  0  0  0
   -1.8939    2.3020   -1.1795 N   0  0  0  1  0  0  0  0  0  0  0  0
   -0.9057    2.1360   -0.1231 C   0  0  0  1  0  0  0  0  0  0  0  0
   -1.4846   -0.1790   -0.2800 O   0  0  0  1  0  0  0  0  0  0  0  0
    0.5915    0.2924    0.4337 N   0  0  0  1  0  0  0  0  0  0  0  0
   -2.8315    2.4708   -0.9499 H   0  0  0  1  0  0  0  0  0  0  0  0
   -1.5218    2.2242   -2.4721 C   0  0  0  1  0  0  0  0  0  0  0  0
    0.9807   -1.0993    0.6057 C   0  0  0  1  0  0  0  0  0  0  0  0
   -2.6878    2.1909   -3.4409 C   0  0  0  1  0  0  0  0  0  0  0  0
   -0.3584    2.1824   -2.8634 O   0  0  0  1  0  0  0  0  0  0  0  0
    1.2352    0.9952    0.6623 H   0  0  0  1  0  0  0  0  0  0  0  0
    0.3292   -1.7258    0.0330 H   0  0  0  1  0  0  0  0  0  0  0  0
    0.9110   -1.3637    1.6402 H   0  0  0  1  0  0  0  0  0  0  0  0
    1.9881   -1.2317    0.2703 H   0  0  0  1  0  0  0  0  0  0  0  0
   -2.6796    3.0772   -4.0403 H   0  0  0  1  0  0  0  0  0  0  0  0
   -3.6053    2.1397   -2.8928 H   0  0  0  1  0  0  0  0  0  0  0  0
   -2.6013    1.3321   -4.0734 H   0  0  0  1  0  0  0  0  0  0  0  0
   -1.4051    2.7239    1.1902 C   0  0  0  1  0  0  0  0  0  0  0  0
   -1.9286    4.1279    1.0464 C   0  0  0  1  0  0  0  0  0  0  0  0
   -1.0446    5.1889    0.9266 C   0  0  0  1  0  0  0  0  0  0  0  0
   -1.5260    6.4783    0.8000 C   0  0  0  1  0  0  0  0  0  0  0  0
   -2.8926    6.7100    0.7875 C   0  0  0  1  0  0  0  0  0  0  0  0
   -3.7738    5.6520    0.9070 C   0  0  0  1  0  0  0  0  0  0  0  0
   -3.2913    4.3588    1.0340 C   0  0  0  1  0  0  0  0  0  0  0  0
   -3.3400    7.9826    0.6570 O   0  0  0  1  0  0  0  0  0  0  0  0
   -0.6036    7.4654    0.6928 O   0  0  0  1  0  0  0  0  0  0  0  0
   -0.5951    2.7323    1.8893 H   0  0  0  1  0  0  0  0  0  0  0  0
   -2.1927    2.1033    1.5635 H   0  0  0  1  0  0  0  0  0  0  0  0
   -0.0193    5.0148    0.9320 H   0  0  0  1  0  0  0  0  0  0  0  0
   -4.7991    5.8262    0.9017 H   0  0  0  1  0  0  0  0  0  0  0  0
   -3.9545    3.5623    1.1198 H   0  0  0  1  0  0  0  0  0  0  0  0
   -3.5655    8.3333    1.5217 H   0  0  0  1  0  0  0  0  0  0  0  0
   -0.3355    7.5552   -0.2246 H   0  0  0  1  0  0  0  0  0  0  0  0
  1  4  1  0  0  0  0
  2  4  1  0  0  0  0
  2  5  2  0  0  0  0
  2  6  1  0  0  0  0
  3  4  1  0  0  0  0
  3  7  1  0  0  0  0
  3  8  1  0  0  0  0
  4 19  1  0  0  0  0
  6  9  1  0  0  0  0
  6 12  1  0  0  0  0
  8 10  1  0  0  0  0
  8 11  2  0  0  0  0
  9 13  1  0  0  0  0
  9 14  1  0  0  0  0
  9 15  1  0  0  0  0
 10 16  1  0  0  0  0
 10 17  1  0  0  0  0
 10 18  1  0  0  0  0
 19 20  1  0  0  0  0
 19 28  1  0  0  0  0
 19 29  1  0  0  0  0
 20 21  4  0  0  0  0
 20 25  4  0  0  0  0
 21 22  4  0  0  0  0
 21 30  1  0  0  0  0
 22 23  4  0  0  0  0
 22 27  1  0  0  0  0
 23 24  4  0  0  0  0
 23 26  1  0  0  0  0
 24 25  4  0  0  0  0
 24 31  1  0  0  0  0
 25 32  1  0  0  0  0
 26 33  1  0  0  0  0
 27 34  1  0  0  0  0
M  END
> <BCLConfClusterSize>
1

> <ConfClashScore>
0 

> <ConfOneFourInteractionScore>
-0.987695 

> <ConfScore>
-0.170523 

> <ConfScorePBest>
0.00658068 

> <ConfTolerance>
0.26406 

> <RosettaParamsInstructions>
M  ROOT 3
M  POLY_N_BB 3
M  POLY_CA_BB 4
M  POLY_C_BB 2
M  POLY_O_BB 5
M  POLY_IGNORE 9 10 11 12 13 14 15 16 17 18 
M  POLY_UPPER 6
M  POLY_LOWER 8
M  POLY_CHG 0
M  POLY_PROPERTIES ALPHA_AA L_AA PROTEIN AROMATIC POLYMER 
M  END

$$$$



 34 34  0  0  0  0  0  0  0  0999 V2000
   -0.9779    2.3523   -0.8179 H   0  0  0  1  0  0  0  0  0  0  0  0
   -0.6514    0.5475    0.2496 C   0  0  0  1  0  0  0  0  0  0  0  0
   -2.7917    1.4535   -0.3550 N   0  0  0  1  0  0  0  0  0  0  0  0
   -1.4303    1.8278   -0.0024 C   0  0  0  1  0  0  0  0  0  0  0  0
   -1.2037   -0.4585    0.6635 O   0  0  0  1  0  0  0  0  0  0  0  0
    0.6641    0.6043   -0.0118 N   0  0  0  1  0  0  0  0  0  0  0  0
   -3.4809    1.5483    0.3352 H   0  0  0  1  0  0  0  0  0  0  0  0
   -3.1722    0.9910   -1.5470 C   0  0  0  1  0  0  0  0  0  0  0  0
    1.5743   -0.4745    0.3427 C   0  0  0  1  0  0  0  0  0  0  0  0
   -4.6086    0.5293   -1.6445 C   0  0  0  1  0  0  0  0  0  0  0  0
   -2.4167    0.9361   -2.5165 O   0  0  0  1  0  0  0  0  0  0  0  0
    1.0240    1.3998   -0.4568 H   0  0  0  1  0  0  0  0  0  0  0  0
    1.1901   -1.0019    1.1907 H   0  0  0  1  0  0  0  0  0  0  0  0
    2.5343   -0.0668    0.5815 H   0  0  0  1  0  0  0  0  0  0  0  0
    1.6678   -1.1479   -0.4836 H   0  0  0  1  0  0  0  0  0  0  0  0
   -5.1337    0.8055   -0.7540 H   0  0  0  1  0  0  0  0  0  0  0  0
   -4.6342   -0.5343   -1.7579 H   0  0  0  1  0  0  0  0  0  0  0  0
   -5.0744    0.9901   -2.4904 H   0  0  0  1  0  0  0  0  0  0  0  0
   -1.3948    2.7223    1.2361 C   0  0  0  1  0  0  0  0  0  0  0  0
   -1.9368    4.1133    1.0432 C   0  0  0  1  0  0  0  0  0  0  0  0
   -1.0361    5.1226    0.7403 C   0  0  0  1  0  0  0  0  0  0  0  0
   -1.4845    6.4173    0.5592 C   0  0  0  1  0  0  0  0  0  0  0  0
   -2.8353    6.7058    0.6751 C   0  0  0  1  0  0  0  0  0  0  0  0
   -3.7333    5.6994    0.9770 C   0  0  0  1  0  0  0  0  0  0  0  0
   -3.2838    4.4008    1.1587 C   0  0  0  1  0  0  0  0  0  0  0  0
   -3.2023    7.9956    0.4791 O   0  0  0  1  0  0  0  0  0  0  0  0
   -0.5839    7.3876    0.2691 O   0  0  0  1  0  0  0  0  0  0  0  0
   -0.3764    2.8060    1.5537 H   0  0  0  1  0  0  0  0  0  0  0  0
   -1.9702    2.2473    2.0030 H   0  0  0  1  0  0  0  0  0  0  0  0
   -0.0231    4.9055    0.6494 H   0  0  0  1  0  0  0  0  0  0  0  0
   -4.7463    5.9165    1.0679 H   0  0  0  1  0  0  0  0  0  0  0  0
   -3.9600    3.6428    1.3820 H   0  0  0  1  0  0  0  0  0  0  0  0
   -4.0061    8.1784    0.9710 H   0  0  0  1  0  0  0  0  0  0  0  0
   -0.2530    7.7719    1.0842 H   0  0  0  1  0  0  0  0  0  0  0  0
  1  4  1  0  0  0  0
  2  4  1  0  0  0  0
  2  5  2  0  0  0  0
  2  6  1  0  0  0  0
  3  4  1  0  0  0  0
  3  7  1  0  0  0  0
  3  8  1  0  0  0  0
  4 19  1  0  0  0  0
  6  9  1  0  0  0  0
  6 12  1  0  0  0  0
  8 10  1  0  0  0  0
  8 11  2  0  0  0  0
  9 13  1  0  0  0  0
  9 14  1  0  0  0  0
  9 15  1  0  0  0  0
 10 16  1  0  0  0  0
 10 17  1  0  0  0  0
 10 18  1  0  0  0  0
 19 20  1  0  0  0  0
 19 28  1  0  0  0  0
 19 29  1  0  0  0  0
 20 21  4  0  0  0  0
 20 25  4  0  0  0  0
 21 22  4  0  0  0  0
 21 30  1  0  0  0  0
 22 23  4  0  0  0  0
 22 27  1  0  0  0  0
 23 24  4  0  0  0  0
 23 26  1  0  0  0  0
 24 25  4  0  0  0  0
 24 31  1  0  0  0  0
 25 32  1  0  0  0  0
 26 33  1  0  0  0  0
 27 34  1  0  0  0  0
M  END
> <BCLConfClusterSize>
1

> <ConfClashScore>
0 

> <ConfOneFourInteractionScore>
-0.981931 

> <ConfScore>
-0.169777 

> <ConfScorePBest>
0.0065522 

> <ConfTolerance>
0.205292 

> <RosettaParamsInstructions>
M  ROOT 3
M  POLY_N_BB 3
M  POLY_CA_BB 4
M  POLY_C_BB 2
M  POLY_O_BB 5
M  POLY_IGNORE 9 10 11 12 13 14 15 16 17 18 
M  POLY_UPPER 6
M  POLY_LOWER 8
M  POLY_CHG 0
M  POLY_PROPERTIES ALPHA_AA L_AA PROTEIN AROMATIC POLYMER 
M  END

$$$$



 34 34  0  0  0  0  0  0  0  0999 V2000
   -0.6270    2.3475   -0.6772 H   0  0  0  1  0  0  0  0  0  0  0  0
   -0.8828    0.4625    0.2547 C   0  0  0  1  0  0  0  0  0  0  0  0
   -2.6386    1.8682   -0.7027 N   0  0  0  1  0  0  0  0  0  0  0  0
   -1.3468    1.8873   -0.0329 C   0  0  0  1  0  0  0  0  0  0  0  0
   -1.6954   -0.3838    0.6249 O   0  0  0  1  0  0  0  0  0  0  0  0
    0.4064    0.1825    0.0001 N   0  0  0  1  0  0  0  0  0  0  0  0
   -3.4034    2.2995   -0.2675 H   0  0  0  1  0  0  0  0  0  0  0  0
   -2.8200    1.2773   -1.9020 C   0  0  0  1  0  0  0  0  0  0  0  0
    0.9796   -1.1367    0.2420 C   0  0  0  1  0  0  0  0  0  0  0  0
   -4.2195    1.2633   -2.4854 C   0  0  0  1  0  0  0  0  0  0  0  0
   -1.8792    0.7642   -2.5064 O   0  0  0  1  0  0  0  0  0  0  0  0
    0.9815    0.8892   -0.3608 H   0  0  0  1  0  0  0  0  0  0  0  0
    0.2408   -1.8873    0.0531 H   0  0  0  1  0  0  0  0  0  0  0  0
    1.3035   -1.2035    1.2596 H   0  0  0  1  0  0  0  0  0  0  0  0
    1.8151   -1.2871   -0.4093 H   0  0  0  1  0  0  0  0  0  0  0  0
   -4.6025    2.2619   -2.5189 H   0  0  0  1  0  0  0  0  0  0  0  0
   -4.8549    0.6583   -1.8729 H   0  0  0  1  0  0  0  0  0  0  0  0
   -4.1887    0.8599   -3.4759 H   0  0  0  1  0  0  0  0  0  0  0  0
   -1.4140    2.7031    1.2619 C   0  0  0  1  0  0  0  0  0  0  0  0
   -1.9387    4.0985    1.0531 C   0  0  0  1  0  0  0  0  0  0  0  0
   -1.0242    5.0949    0.7489 C   0  0  0  1  0  0  0  0  0  0  0  0
   -1.4564    6.3931    0.5534 C   0  0  0  1  0  0  0  0  0  0  0  0
   -2.8048    6.6977    0.6562 C   0  0  0  1  0  0  0  0  0  0  0  0
   -3.7164    5.7042    0.9595 C   0  0  0  1  0  0  0  0  0  0  0  0
   -3.2832    4.4021    1.1556 C   0  0  0  1  0  0  0  0  0  0  0  0
   -3.2044    7.9770    0.4550 O   0  0  0  1  0  0  0  0  0  0  0  0
   -0.6367    7.4312    0.2582 O   0  0  0  1  0  0  0  0  0  0  0  0
   -0.4292    2.7679    1.6751 H   0  0  0  1  0  0  0  0  0  0  0  0
   -2.0577    2.1967    1.9504 H   0  0  0  1  0  0  0  0  0  0  0  0
   -0.0130    4.8656    0.6678 H   0  0  0  1  0  0  0  0  0  0  0  0
   -4.7275    5.9335    1.0406 H   0  0  0  1  0  0  0  0  0  0  0  0
   -3.9697    3.6538    1.3798 H   0  0  0  1  0  0  0  0  0  0  0  0
   -3.9460    8.1755    1.0313 H   0  0  0  1  0  0  0  0  0  0  0  0
   -0.3442    7.8497    1.0711 H   0  0  0  1  0  0  0  0  0  0  0  0
  1  4  1  0  0  0  0
  2  4  1  0  0  0  0
  2  5  2  0  0  0  0
  2  6  1  0  0  0  0
  3  4  1  0  0  0  0
  3  7  1  0  0  0  0
  3  8  1  0  0  0  0
  4 19  1  0  0  0  0
  6  9  1  0  0  0  0
  6 12  1  0  0  0  0
  8 10  1  0  0  0  0
  8 11  2  0  0  0  0
  9 13  1  0  0  0  0
  9 14  1  0  0  0  0
  9 15  1  0  0  0  0
 10 16  1  0  0  0  0
 10 17  1  0  0  0  0
 10 18  1  0  0  0  0
 19 20  1  0  0  0  0
 19 28  1  0  0  0  0
 19 29  1  0  0  0  0
 20 21  4  0  0  0  0
 20 25  4  0  0  0  0
 21 22  4  0  0  0  0
 21 30  1  0  0  0  0
 22 23  4  0  0  0  0
 22 27  1  0  0  0  0
 23 24  4  0  0  0  0
 23 26  1  0  0  0  0
 24 25  4  0  0  0  0
 24 31  1  0  0  0  0
 25 32  1  0  0  0  0
 26 33  1  0  0  0  0
 27 34  1  0  0  0  0
M  END
> <BCLConfClusterSize>
1

> <ConfClashScore>
0 

> <ConfOneFourInteractionScore>
-0.985807 

> <ConfScore>
-0.167519 

> <ConfScorePBest>
0.00652372 

> <ConfTolerance>
0.227764 

> <RosettaParamsInstructions>
M  ROOT 3
M  POLY_N_BB 3
M  POLY_CA_BB 4
M  POLY_C_BB 2
M  POLY_O_BB 5
M  POLY_IGNORE 9 10 11 12 13 14 15 16 17 18 
M  POLY_UPPER 6
M  POLY_LOWER 8
M  POLY_CHG 0
M  POLY_PROPERTIES ALPHA_AA L_AA PROTEIN AROMATIC POLYMER 
M  END

$$$$



 34 34  0  0  0  0  0  0  0  0999 V2000
   -1.6923    2.7349    3.2785 H   0  0  0  1  0  0  0  0  0  0  0  0
   -0.5365    1.0238    2.8244 C   0  0  0  1  0  0  0  0  0  0  0  0
    0.2297    3.3638    2.8200 N   0  0  0  1  0  0  0  0  0  0  0  0
   -0.9127    2.4783    2.5920 C   0  0  0  1  0  0  0  0  0  0  0  0
    0.5912    0.6212    2.5906 O   0  0  0  1  0  0  0  0  0  0  0  0
   -1.5459    0.2308    3.2174 N   0  0  0  1  0  0  0  0  0  0  0  0
    1.0633    3.1953    2.3329 H   0  0  0  1  0  0  0  0  0  0  0  0
    0.1756    4.4016    3.6753 C   0  0  0  1  0  0  0  0  0  0  0  0
   -1.4875   -1.2219    3.2821 C   0  0  0  1  0  0  0  0  0  0  0  0
    1.4329    5.2439    3.7694 C   0  0  0  1  0  0  0  0  0  0  0  0
   -0.8130    4.6632    4.3405 O   0  0  0  1  0  0  0  0  0  0  0  0
   -2.3853    0.6627    3.4806 H   0  0  0  1  0  0  0  0  0  0  0  0
   -2.4364   -1.6038    3.5960 H   0  0  0  1  0  0  0  0  0  0  0  0
   -0.7348   -1.5175    3.9829 H   0  0  0  1  0  0  0  0  0  0  0  0
   -1.2483   -1.6124    2.3151 H   0  0  0  1  0  0  0  0  0  0  0  0
    1.2568    6.1998    3.3219 H   0  0  0  1  0  0  0  0  0  0  0  0
    2.2313    4.7512    3.2550 H   0  0  0  1  0  0  0  0  0  0  0  0
    1.6978    5.3752    4.7977 H   0  0  0  1  0  0  0  0  0  0  0  0
   -1.4348    2.7138    1.1778 C   0  0  0  1  0  0  0  0  0  0  0  0
   -1.9280    4.1271    1.0193 C   0  0  0  1  0  0  0  0  0  0  0  0
   -1.0339    5.1450    0.7257 C   0  0  0  1  0  0  0  0  0  0  0  0
   -1.4867    6.4433    0.5856 C   0  0  0  1  0  0  0  0  0  0  0  0
   -2.8355    6.7268    0.7334 C   0  0  0  1  0  0  0  0  0  0  0  0
   -3.7268    5.7119    1.0262 C   0  0  0  1  0  0  0  0  0  0  0  0
   -3.2729    4.4097    1.1667 C   0  0  0  1  0  0  0  0  0  0  0  0
   -3.2072    8.0207    0.5769 O   0  0  0  1  0  0  0  0  0  0  0  0
   -0.5925    7.4218    0.3037 O   0  0  0  1  0  0  0  0  0  0  0  0
   -2.2408    2.0372    0.9842 H   0  0  0  1  0  0  0  0  0  0  0  0
   -0.6446    2.5374    0.4782 H   0  0  0  1  0  0  0  0  0  0  0  0
   -0.0225    4.9317    0.6108 H   0  0  0  1  0  0  0  0  0  0  0  0
   -4.7382    5.9252    1.1411 H   0  0  0  1  0  0  0  0  0  0  0  0
   -3.9442    3.6454    1.3830 H   0  0  0  1  0  0  0  0  0  0  0  0
   -4.1489    8.1059    0.7427 H   0  0  0  1  0  0  0  0  0  0  0  0
   -0.1071    7.6514    1.0995 H   0  0  0  1  0  0  0  0  0  0  0  0
  1  4  1  0  0  0  0
  2  4  1  0  0  0  0
  2  5  2  0  0  0  0
  2  6  1  0  0  0  0
  3  4  1  0  0  0  0
  3  7  1  0  0  0  0
  3  8  1  0  0  0  0
  4 19  1  0  0  0  0
  6  9  1  0  0  0  0
  6 12  1  0  0  0  0
  8 10  1  0  0  0  0
  8 11  2  0  0  0  0
  9 13  1  0  0  0  0
  9 14  1  0  0  0  0
  9 15  1  0  0  0  0
 10 16  1  0  0  0  0
 10 17  1  0  0  0  0
 10 18  1  0  0  0  0
 19 20  1  0  0  0  0
 19 28  1  0  0  0  0
 19 29  1  0  0  0  0
 20 21  4  0  0  0  0
 20 25  4  0  0  0  0
 21 22  4  0  0  0  0
 21 30  1  0  0  0  0
 22 23  4  0  0  0  0
 22 27  1  0  0  0  0
 23 24  4  0  0  0  0
 23 26  1  0  0  0  0
 24 25  4  0  0  0  0
 24 31  1  0  0  0  0
 25 32  1  0  0  0  0
 26 33  1  0  0  0  0
 27 34  1  0  0  0  0
M  END
> <BCLConfClusterSize>
1

> <ConfClashScore>
0 

> <ConfOneFourInteractionScore>
-0.986627 

> <ConfScore>
-0.167074 

> <ConfScorePBest>
0.00649524 

> <ConfTolerance>
0.308157 

> <RosettaParamsInstructions>
M  ROOT 3
M  POLY_N_BB 3
M  POLY_CA_BB 4
M  POLY_C_BB 2
M  POLY_O_BB 5
M  POLY_IGNORE 9 10 11 12 13 14 15 16 17 18 
M  POLY_UPPER 6
M  POLY_LOWER 8
M  POLY_CHG 0
M  POLY_PROPERTIES ALPHA_AA L_AA PROTEIN AROMATIC POLYMER 
M  END

$$$$



 34 34  0  0  0  0  0  0  0  0999 V2000
   -1.9909    2.2915    3.2562 H   0  0  0  1  0  0  0  0  0  0  0  0
   -0.3282    1.0486    2.8063 C   0  0  0  1  0  0  0  0  0  0  0  0
   -0.2399    3.4070    3.2556 N   0  0  0  1  0  0  0  0  0  0  0  0
   -1.0838    2.3647    2.6934 C   0  0  0  1  0  0  0  0  0  0  0  0
    0.9002    1.0180    2.7651 O   0  0  0  1  0  0  0  0  0  0  0  0
   -1.1003   -0.0469    2.8687 N   0  0  0  1  0  0  0  0  0  0  0  0
    0.3346    3.9409    2.6680 H   0  0  0  1  0  0  0  0  0  0  0  0
   -0.2461    3.6382    4.5714 C   0  0  0  1  0  0  0  0  0  0  0  0
   -0.5515   -1.3919    2.7701 C   0  0  0  1  0  0  0  0  0  0  0  0
    0.6566    4.7597    5.0474 C   0  0  0  1  0  0  0  0  0  0  0  0
   -0.9324    2.9940    5.3604 O   0  0  0  1  0  0  0  0  0  0  0  0
   -2.0673    0.0620    2.9846 H   0  0  0  1  0  0  0  0  0  0  0  0
   -1.2654   -2.0354    2.2999 H   0  0  0  1  0  0  0  0  0  0  0  0
   -0.3315   -1.7598    3.7505 H   0  0  0  1  0  0  0  0  0  0  0  0
    0.3457   -1.3690    2.1876 H   0  0  0  1  0  0  0  0  0  0  0  0
    0.4197    5.6583    4.5172 H   0  0  0  1  0  0  0  0  0  0  0  0
    1.6777    4.4970    4.8653 H   0  0  0  1  0  0  0  0  0  0  0  0
    0.5094    4.9151    6.0958 H   0  0  0  1  0  0  0  0  0  0  0  0
   -1.4369    2.6517    1.2277 C   0  0  0  1  0  0  0  0  0  0  0  0
   -1.9386    4.0617    1.0658 C   0  0  0  1  0  0  0  0  0  0  0  0
   -1.0382    5.1098    0.9545 C   0  0  0  1  0  0  0  0  0  0  0  0
   -1.4996    6.4047    0.8112 C   0  0  0  1  0  0  0  0  0  0  0  0
   -2.8625    6.6549    0.7733 C   0  0  0  1  0  0  0  0  0  0  0  0
   -3.7600    5.6098    0.8843 C   0  0  0  1  0  0  0  0  0  0  0  0
   -3.2975    4.3110    1.0281 C   0  0  0  1  0  0  0  0  0  0  0  0
   -3.2900    7.9325    0.6268 O   0  0  0  1  0  0  0  0  0  0  0  0
   -0.6961    7.4905    0.7005 O   0  0  0  1  0  0  0  0  0  0  0  0
   -2.1980    1.9699    0.9102 H   0  0  0  1  0  0  0  0  0  0  0  0
   -0.5636    2.5185    0.6239 H   0  0  0  1  0  0  0  0  0  0  0  0
   -0.0156    4.9217    0.9788 H   0  0  0  1  0  0  0  0  0  0  0  0
   -4.7826    5.7979    0.8600 H   0  0  0  1  0  0  0  0  0  0  0  0
   -3.9730    3.5242    1.1075 H   0  0  0  1  0  0  0  0  0  0  0  0
   -2.9037    8.4805    1.3138 H   0  0  0  1  0  0  0  0  0  0  0  0
   -0.9851    8.0289   -0.0399 H   0  0  0  1  0  0  0  0  0  0  0  0
  1  4  1  0  0  0  0
  2  4  1  0  0  0  0
  2  5  2  0  0  0  0
  2  6  1  0  0  0  0
  3  4  1  0  0  0  0
  3  7  1  0  0  0  0
  3  8  1  0  0  0  0
  4 19  1  0  0  0  0
  6  9  1  0  0  0  0
  6 12  1  0  0  0  0
  8 10  1  0  0  0  0
  8 11  2  0  0  0  0
  9 13  1  0  0  0  0
  9 14  1  0  0  0  0
  9 15  1  0  0  0  0
 10 16  1  0  0  0  0
 10 17  1  0  0  0  0
 10 18  1  0  0  0  0
 19 20  1  0  0  0  0
 19 28  1  0  0  0  0
 19 29  1  0  0  0  0
 20 21  4  0  0  0  0
 20 25  4  0  0  0  0
 21 22  4  0  0  0  0
 21 30  1  0  0  0  0
 22 23  4  0  0  0  0
 22 27  1  0  0  0  0
 23 24  4  0  0  0  0
 23 26  1  0  0  0  0
 24 25  4  0  0  0  0
 24 31  1  0  0  0  0
 25 32  1  0  0  0  0
 26 33  1  0  0  0  0
 27 34  1  0  0  0  0
M  END
> <BCLConfClusterSize>
1

> <ConfClashScore>
0 

> <ConfOneFourInteractionScore>
-0.987695 

> <ConfScore>
-0.162489 

> <ConfScorePBest>
0.00646676 

> <ConfTolerance>
0.327357 

> <RosettaParamsInstructions>
M  ROOT 3
M  POLY_N_BB 3
M  POLY_CA_BB 4
M  POLY_C_BB 2
M  POLY_O_BB 5
M  POLY_IGNORE 9 10 11 12 13 14 15 16 17 18 
M  POLY_UPPER 6
M  POLY_LOWER 8
M  POLY_CHG 0
M  POLY_PROPERTIES ALPHA_AA L_AA PROTEIN AROMATIC POLYMER 
M  END

$$$$



 34 34  0  0  0  0  0  0  0  0999 V2000
   -1.8890    2.2962    2.9686 H   0  0  0  1  0  0  0  0  0  0  0  0
   -0.8049    0.6495    2.2447 C   0  0  0  1  0  0  0  0  0  0  0  0
    0.0873    2.8403    2.9196 N   0  0  0  1  0  0  0  0  0  0  0  0
   -1.0480    2.1526    2.3228 C   0  0  0  1  0  0  0  0  0  0  0  0
    0.2960    0.1436    2.1351 O   0  0  0  1  0  0  0  0  0  0  0  0
   -1.9020   -0.1278    2.3041 N   0  0  0  1  0  0  0  0  0  0  0  0
    0.6756    3.3894    2.3603 H   0  0  0  1  0  0  0  0  0  0  0  0
    0.3294    2.7245    4.2284 C   0  0  0  1  0  0  0  0  0  0  0  0
   -1.7247   -1.5705    2.2329 C   0  0  0  1  0  0  0  0  0  0  0  0
    1.4965    3.5355    4.7567 C   0  0  0  1  0  0  0  0  0  0  0  0
   -0.3399    2.0118    4.9718 O   0  0  0  1  0  0  0  0  0  0  0  0
   -2.7947    0.2664    2.3929 H   0  0  0  1  0  0  0  0  0  0  0  0
   -0.8444   -1.7947    1.6675 H   0  0  0  1  0  0  0  0  0  0  0  0
   -2.5758   -2.0111    1.7569 H   0  0  0  1  0  0  0  0  0  0  0  0
   -1.6237   -1.9665    3.2217 H   0  0  0  1  0  0  0  0  0  0  0  0
    2.1392    2.9031    5.3328 H   0  0  0  1  0  0  0  0  0  0  0  0
    1.1292    4.3281    5.3747 H   0  0  0  1  0  0  0  0  0  0  0  0
    2.0448    3.9477    3.9356 H   0  0  0  1  0  0  0  0  0  0  0  0
   -1.4323    2.7304    0.9705 C   0  0  0  1  0  0  0  0  0  0  0  0
   -1.9243    4.1528    0.9928 C   0  0  0  1  0  0  0  0  0  0  0  0
   -1.0522    5.1996    0.7374 C   0  0  0  1  0  0  0  0  0  0  0  0
   -1.5276    6.4960    0.6774 C   0  0  0  1  0  0  0  0  0  0  0  0
   -2.8772    6.7489    0.8672 C   0  0  0  1  0  0  0  0  0  0  0  0
   -3.7466    5.7052    1.1218 C   0  0  0  1  0  0  0  0  0  0  0  0
   -3.2700    4.4049    1.1821 C   0  0  0  1  0  0  0  0  0  0  0  0
   -3.3199    8.0280    0.7983 O   0  0  0  1  0  0  0  0  0  0  0  0
   -0.6167    7.4683    0.4292 O   0  0  0  1  0  0  0  0  0  0  0  0
   -2.2081    2.1192    0.5589 H   0  0  0  1  0  0  0  0  0  0  0  0
   -0.5709    2.6890    0.3371 H   0  0  0  1  0  0  0  0  0  0  0  0
   -0.0402    5.0095    0.5911 H   0  0  0  1  0  0  0  0  0  0  0  0
   -4.7586    5.8953    1.2682 H   0  0  0  1  0  0  0  0  0  0  0  0
   -3.9250    3.6191    1.3697 H   0  0  0  1  0  0  0  0  0  0  0  0
   -4.0586    8.0790    0.1873 H   0  0  0  1  0  0  0  0  0  0  0  0
    0.0701    7.4427    1.0995 H   0  0  0  1  0  0  0  0  0  0  0  0
  1  4  1  0  0  0  0
  2  4  1  0  0  0  0
  2  5  2  0  0  0  0
  2  6  1  0  0  0  0
  3  4  1  0  0  0  0
  3  7  1  0  0  0  0
  3  8  1  0  0  0  0
  4 19  1  0  0  0  0
  6  9  1  0  0  0  0
  6 12  1  0  0  0  0
  8 10  1  0  0  0  0
  8 11  2  0  0  0  0
  9 13  1  0  0  0  0
  9 14  1  0  0  0  0
  9 15  1  0  0  0  0
 10 16  1  0  0  0  0
 10 17  1  0  0  0  0
 10 18  1  0  0  0  0
 19 20  1  0  0  0  0
 19 28  1  0  0  0  0
 19 29  1  0  0  0  0
 20 21  4  0  0  0  0
 20 25  4  0  0  0  0
 21 22  4  0  0  0  0
 21 30  1  0  0  0  0
 22 23  4  0  0  0  0
 22 27  1  0  0  0  0
 23 24  4  0  0  0  0
 23 26  1  0  0  0  0
 24 25  4  0  0  0  0
 24 31  1  0  0  0  0
 25 32  1  0  0  0  0
 26 33  1  0  0  0  0
 27 34  1  0  0  0  0
M  END
> <BCLConfClusterSize>
1

> <ConfClashScore>
0 

> <ConfOneFourInteractionScore>
-0.985807 

> <ConfScore>
-0.158442 

> <ConfScorePBest>
0.00643828 

> <ConfTolerance>
0.213105 

> <RosettaParamsInstructions>
M  ROOT 3
M  POLY_N_BB 3
M  POLY_CA_BB 4
M  POLY_C_BB 2
M  POLY_O_BB 5
M  POLY_IGNORE 9 10 11 12 13 14 15 16 17 18 
M  POLY_UPPER 6
M  POLY_LOWER 8
M  POLY_CHG 0
M  POLY_PROPERTIES ALPHA_AA L_AA PROTEIN AROMATIC POLYMER 
M  END

$$$$



 34 34  0  0  0  0  0  0  0  0999 V2000
   -0.6657    2.5311   -0.8094 H   0  0  0  1  0  0  0  0  0  0  0  0
   -0.6819    0.6354    0.1497 C   0  0  0  1  0  0  0  0  0  0  0  0
   -2.6149    1.8013   -0.6929 N   0  0  0  1  0  0  0  0  0  0  0  0
   -1.2884    1.9927   -0.1258 C   0  0  0  1  0  0  0  0  0  0  0  0
   -1.3837   -0.3702    0.2430 O   0  0  0  1  0  0  0  0  0  0  0  0
    0.6452    0.6097    0.2815 N   0  0  0  1  0  0  0  0  0  0  0  0
   -3.3822    1.7290   -0.0875 H   0  0  0  1  0  0  0  0  0  0  0  0
   -2.8231    1.7207   -2.0102 C   0  0  0  1  0  0  0  0  0  0  0  0
    1.3738   -0.6157    0.5742 C   0  0  0  1  0  0  0  0  0  0  0  0
   -4.2665    1.5429   -2.4393 C   0  0  0  1  0  0  0  0  0  0  0  0
   -1.9160    1.7846   -2.8357 O   0  0  0  1  0  0  0  0  0  0  0  0
    1.1471    1.4449    0.1775 H   0  0  0  1  0  0  0  0  0  0  0  0
    0.7545   -1.2701    1.1514 H   0  0  0  1  0  0  0  0  0  0  0  0
    2.2581   -0.3806    1.1288 H   0  0  0  1  0  0  0  0  0  0  0  0
    1.6443   -1.0971   -0.3422 H   0  0  0  1  0  0  0  0  0  0  0  0
   -4.5660    2.3764   -3.0396 H   0  0  0  1  0  0  0  0  0  0  0  0
   -4.8914    1.4850   -1.5727 H   0  0  0  1  0  0  0  0  0  0  0  0
   -4.3607    0.6417   -3.0084 H   0  0  0  1  0  0  0  0  0  0  0  0
   -1.3627    2.7537    1.1914 C   0  0  0  1  0  0  0  0  0  0  0  0
   -1.9259    4.1414    1.0397 C   0  0  0  1  0  0  0  0  0  0  0  0
   -1.0726    5.2243    0.8949 C   0  0  0  1  0  0  0  0  0  0  0  0
   -1.5904    6.4988    0.7610 C   0  0  0  1  0  0  0  0  0  0  0  0
   -2.9627    6.6936    0.7661 C   0  0  0  1  0  0  0  0  0  0  0  0
   -3.8133    5.6139    0.9104 C   0  0  0  1  0  0  0  0  0  0  0  0
   -3.2943    4.3356    1.0447 C   0  0  0  1  0  0  0  0  0  0  0  0
   -3.4461    7.9522    0.6279 O   0  0  0  1  0  0  0  0  0  0  0  0
   -0.7969    7.5887    0.6221 O   0  0  0  1  0  0  0  0  0  0  0  0
   -0.3755    2.8293    1.5972 H   0  0  0  1  0  0  0  0  0  0  0  0
   -1.9855    2.2054    1.8669 H   0  0  0  1  0  0  0  0  0  0  0  0
   -0.0430    5.0777    0.8871 H   0  0  0  1  0  0  0  0  0  0  0  0
   -4.8429    5.7605    0.9183 H   0  0  0  1  0  0  0  0  0  0  0  0
   -3.9345    3.5227    1.1493 H   0  0  0  1  0  0  0  0  0  0  0  0
   -3.3241    8.4343    1.4491 H   0  0  0  1  0  0  0  0  0  0  0  0
   -0.0698    7.3823    0.0301 H   0  0  0  1  0  0  0  0  0  0  0  0
  1  4  1  0  0  0  0
  2  4  1  0  0  0  0
  2  5  2  0  0  0  0
  2  6  1  0  0  0  0
  3  4  1  0  0  0  0
  3  7  1  0  0  0  0
  3  8  1  0  0  0  0
  4 19  1  0  0  0  0
  6  9  1  0  0  0  0
  6 12  1  0  0  0  0
  8 10  1  0  0  0  0
  8 11  2  0  0  0  0
  9 13  1  0  0  0  0
  9 14  1  0  0  0  0
  9 15  1  0  0  0  0
 10 16  1  0  0  0  0
 10 17  1  0  0  0  0
 10 18  1  0  0  0  0
 19 20  1  0  0  0  0
 19 28  1  0  0  0  0
 19 29  1  0  0  0  0
 20 21  4  0  0  0  0
 20 25  4  0  0  0  0
 21 22  4  0  0  0  0
 21 30  1  0  0  0  0
 22 23  4  0  0  0  0
 22 27  1  0  0  0  0
 23 24  4  0  0  0  0
 23 26  1  0  0  0  0
 24 25  4  0  0  0  0
 24 31  1  0  0  0  0
 25 32  1  0  0  0  0
 26 33  1  0  0  0  0
 27 34  1  0  0  0  0
M  END
> <BCLConfClusterSize>
1

> <ConfClashScore>
0 

> <ConfOneFourInteractionScore>
-0.987695 

> <ConfScore>
-0.157489 

> <ConfScorePBest>
0.0064098 

> <ConfTolerance>
0.313559 

> <RosettaParamsInstructions>
M  ROOT 3
M  POLY_N_BB 3
M  POLY_CA_BB 4
M  POLY_C_BB 2
M  POLY_O_BB 5
M  POLY_IGNORE 9 10 11 12 13 14 15 16 17 18 
M  POLY_UPPER 6
M  POLY_LOWER 8
M  POLY_CHG 0
M  POLY_PROPERTIES ALPHA_AA L_AA PROTEIN AROMATIC POLYMER 
M  END

$$$$



 34 34  0  0  0  0  0  0  0  0999 V2000
   -1.9897    2.6831    3.2612 H   0  0  0  1  0  0  0  0  0  0  0  0
   -1.0876    0.8196    2.8505 C   0  0  0  1  0  0  0  0  0  0  0  0
    0.0305    3.0261    3.0709 N   0  0  0  1  0  0  0  0  0  0  0  0
   -1.1800    2.3333    2.6555 C   0  0  0  1  0  0  0  0  0  0  0  0
   -1.9803    0.0854    2.4350 O   0  0  0  1  0  0  0  0  0  0  0  0
   -0.0492    0.3571    3.5645 N   0  0  0  1  0  0  0  0  0  0  0  0
    0.7729    3.1031    2.4358 H   0  0  0  1  0  0  0  0  0  0  0  0
    0.1649    3.5609    4.2878 C   0  0  0  1  0  0  0  0  0  0  0  0
    0.0271   -1.0544    3.9138 C   0  0  0  1  0  0  0  0  0  0  0  0
    1.3951    4.4224    4.4966 C   0  0  0  1  0  0  0  0  0  0  0  0
   -0.6458    3.3776    5.1920 O   0  0  0  1  0  0  0  0  0  0  0  0
    0.6590    0.9707    3.8513 H   0  0  0  1  0  0  0  0  0  0  0  0
   -0.4676   -1.6352    3.1636 H   0  0  0  1  0  0  0  0  0  0  0  0
   -0.4483   -1.2139    4.8590 H   0  0  0  1  0  0  0  0  0  0  0  0
    1.0532   -1.3514    3.9754 H   0  0  0  1  0  0  0  0  0  0  0  0
    1.6382    4.4514    5.5382 H   0  0  0  1  0  0  0  0  0  0  0  0
    1.1983    5.4150    4.1488 H   0  0  0  1  0  0  0  0  0  0  0  0
    2.2168    4.0088    3.9501 H   0  0  0  1  0  0  0  0  0  0  0  0
   -1.5125    2.6848    1.2053 C   0  0  0  1  0  0  0  0  0  0  0  0
   -1.9224    4.1221    1.0260 C   0  0  0  1  0  0  0  0  0  0  0  0
   -1.0103    5.1225    0.7279 C   0  0  0  1  0  0  0  0  0  0  0  0
   -1.4404    6.4275    0.5790 C   0  0  0  1  0  0  0  0  0  0  0  0
   -2.7844    6.7352    0.7226 C   0  0  0  1  0  0  0  0  0  0  0  0
   -3.6936    5.7376    1.0198 C   0  0  0  1  0  0  0  0  0  0  0  0
   -3.2625    4.4287    1.1692 C   0  0  0  1  0  0  0  0  0  0  0  0
   -3.2543    7.9984    0.5809 O   0  0  0  1  0  0  0  0  0  0  0  0
   -0.4923    7.3528    0.2934 O   0  0  0  1  0  0  0  0  0  0  0  0
   -2.3161    2.0582    0.8787 H   0  0  0  1  0  0  0  0  0  0  0  0
   -0.6477    2.4996    0.6031 H   0  0  0  1  0  0  0  0  0  0  0  0
   -0.0026    4.8911    0.6163 H   0  0  0  1  0  0  0  0  0  0  0  0
   -4.7013    5.9691    1.1315 H   0  0  0  1  0  0  0  0  0  0  0  0
   -3.9473    3.6775    1.3889 H   0  0  0  1  0  0  0  0  0  0  0  0
   -4.2015    8.0074    0.7371 H   0  0  0  1  0  0  0  0  0  0  0  0
   -0.2537    7.8250    1.0944 H   0  0  0  1  0  0  0  0  0  0  0  0
  1  4  1  0  0  0  0
  2  4  1  0  0  0  0
  2  5  2  0  0  0  0
  2  6  1  0  0  0  0
  3  4  1  0  0  0  0
  3  7  1  0  0  0  0
  3  8  1  0  0  0  0
  4 19  1  0  0  0  0
  6  9  1  0  0  0  0
  6 12  1  0  0  0  0
  8 10  1  0  0  0  0
  8 11  2  0  0  0  0
  9 13  1  0  0  0  0
  9 14  1  0  0  0  0
  9 15  1  0  0  0  0
 10 16  1  0  0  0  0
 10 17  1  0  0  0  0
 10 18  1  0  0  0  0
 19 20  1  0  0  0  0
 19 28  1  0  0  0  0
 19 29  1  0  0  0  0
 20 21  4  0  0  0  0
 20 25  4  0  0  0  0
 21 22  4  0  0  0  0
 21 30  1  0  0  0  0
 22 23  4  0  0  0  0
 22 27  1  0  0  0  0
 23 24  4  0  0  0  0
 23 26  1  0  0  0  0
 24 25  4  0  0  0  0
 24 31  1  0  0  0  0
 25 32  1  0  0  0  0
 26 33  1  0  0  0  0
 27 34  1  0  0  0  0
M  END
> <BCLConfClusterSize>
1

> <ConfClashScore>
0 

> <ConfOneFourInteractionScore>
-0.956443 

> <ConfScore>
-0.156161 

> <ConfScorePBest>
0.00638132 

> <ConfTolerance>
0.286186 

> <RosettaParamsInstructions>
M  ROOT 3
M  POLY_N_BB 3
M  POLY_CA_BB 4
M  POLY_C_BB 2
M  POLY_O_BB 5
M  POLY_IGNORE 9 10 11 12 13 14 15 16 17 18 
M  POLY_UPPER 6
M  POLY_LOWER 8
M  POLY_CHG 0
M  POLY_PROPERTIES ALPHA_AA L_AA PROTEIN AROMATIC POLYMER 
M  END

$$$$



 34 34  0  0  0  0  0  0  0  0999 V2000
   -1.6114    2.5742    3.1685 H   0  0  0  1  0  0  0  0  0  0  0  0
   -0.5275    0.8598    2.5437 C   0  0  0  1  0  0  0  0  0  0  0  0
    0.3480    3.0896    2.7126 N   0  0  0  1  0  0  0  0  0  0  0  0
   -0.8669    2.3372    2.4374 C   0  0  0  1  0  0  0  0  0  0  0  0
    0.6386    0.4768    2.5020 O   0  0  0  1  0  0  0  0  0  0  0  0
   -1.5342   -0.0075    2.6833 N   0  0  0  1  0  0  0  0  0  0  0  0
    0.6920    3.6997    2.0271 H   0  0  0  1  0  0  0  0  0  0  0  0
    1.0174    2.9764    3.8785 C   0  0  0  1  0  0  0  0  0  0  0  0
   -1.3132   -1.4389    2.8242 C   0  0  0  1  0  0  0  0  0  0  0  0
    2.1879    3.9027    4.1190 C   0  0  0  1  0  0  0  0  0  0  0  0
    0.6870    2.1448    4.7229 O   0  0  0  1  0  0  0  0  0  0  0  0
   -2.4534    0.3322    2.6912 H   0  0  0  1  0  0  0  0  0  0  0  0
   -2.0831   -1.9719    2.3064 H   0  0  0  1  0  0  0  0  0  0  0  0
   -1.3330   -1.7023    3.8611 H   0  0  0  1  0  0  0  0  0  0  0  0
   -0.3611   -1.6952    2.4087 H   0  0  0  1  0  0  0  0  0  0  0  0
    2.9190    3.7614    3.3506 H   0  0  0  1  0  0  0  0  0  0  0  0
    2.6249    3.6851    5.0711 H   0  0  0  1  0  0  0  0  0  0  0  0
    1.8482    4.9173    4.1055 H   0  0  0  1  0  0  0  0  0  0  0  0
   -1.4256    2.6553    1.0470 C   0  0  0  1  0  0  0  0  0  0  0  0
   -1.9515    4.0647    0.9928 C   0  0  0  1  0  0  0  0  0  0  0  0
   -1.0428    5.0861    0.7631 C   0  0  0  1  0  0  0  0  0  0  0  0
   -1.4762    6.3974    0.7099 C   0  0  0  1  0  0  0  0  0  0  0  0
   -2.8201    6.6909    0.8809 C   0  0  0  1  0  0  0  0  0  0  0  0
   -3.7260    5.6725    1.1099 C   0  0  0  1  0  0  0  0  0  0  0  0
   -3.2915    4.3572    1.1633 C   0  0  0  1  0  0  0  0  0  0  0  0
   -3.1725    7.9976    0.8106 O   0  0  0  1  0  0  0  0  0  0  0  0
   -0.6255    7.4299    0.4932 O   0  0  0  1  0  0  0  0  0  0  0  0
   -2.2211    1.9752    0.8246 H   0  0  0  1  0  0  0  0  0  0  0  0
   -0.6467    2.5434    0.3220 H   0  0  0  1  0  0  0  0  0  0  0  0
   -0.0351    4.8656    0.6308 H   0  0  0  1  0  0  0  0  0  0  0  0
   -4.7337    5.8930    1.2421 H   0  0  0  1  0  0  0  0  0  0  0  0
   -3.9738    3.5906    1.3316 H   0  0  0  1  0  0  0  0  0  0  0  0
   -3.4799    8.1994   -0.0762 H   0  0  0  1  0  0  0  0  0  0  0  0
   -0.7250    8.0794    1.1931 H   0  0  0  1  0  0  0  0  0  0  0  0
  1  4  1  0  0  0  0
  2  4  1  0  0  0  0
  2  5  2  0  0  0  0
  2  6  1  0  0  0  0
  3  4  1  0  0  0  0
  3  7  1  0  0  0  0
  3  8  1  0  0  0  0
  4 19  1  0  0  0  0
  6  9  1  0  0  0  0
  6 12  1  0  0  0  0
  8 10  1  0  0  0  0
  8 11  2  0  0  0  0
  9 13  1  0  0  0  0
  9 14  1  0  0  0  0
  9 15  1  0  0  0  0
 10 16  1  0  0  0  0
 10 17  1  0  0  0  0
 10 18  1  0  0  0  0
 19 20  1  0  0  0  0
 19 28  1  0  0  0  0
 19 29  1  0  0  0  0
 20 21  4  0  0  0  0
 20 25  4  0  0  0  0
 21 22  4  0  0  0  0
 21 30  1  0  0  0  0
 22 23  4  0  0  0  0
 22 27  1  0  0  0  0
 23 24  4  0  0  0  0
 23 26  1  0  0  0  0
 24 25  4  0  0  0  0
 24 31  1  0  0  0  0
 25 32  1  0  0  0  0
 26 33  1  0  0  0  0
 27 34  1  0  0  0  0
M  END
> <BCLConfClusterSize>
1

> <ConfClashScore>
0 

> <ConfOneFourInteractionScore>
-0.987695 

> <ConfScore>
-0.147584 

> <ConfScorePBest>
0.00635284 

> <ConfTolerance>
0.325224 

> <RosettaParamsInstructions>
M  ROOT 3
M  POLY_N_BB 3
M  POLY_CA_BB 4
M  POLY_C_BB 2
M  POLY_O_BB 5
M  POLY_IGNORE 9 10 11 12 13 14 15 16 17 18 
M  POLY_UPPER 6
M  POLY_LOWER 8
M  POLY_CHG 0
M  POLY_PROPERTIES ALPHA_AA L_AA PROTEIN AROMATIC POLYMER 
M  END

$$$$



 34 34  0  0  0  0  0  0  0  0999 V2000
   -3.2957    1.6894    0.8522 H   0  0  0  1  0  0  0  0  0  0  0  0
   -1.8606    0.2832    1.5164 C   0  0  0  1  0  0  0  0  0  0  0  0
   -2.9173    2.0314    2.8558 N   0  0  0  1  0  0  0  0  0  0  0  0
   -2.4589    1.6845    1.5189 C   0  0  0  1  0  0  0  0  0  0  0  0
   -1.8252   -0.3261    0.4482 O   0  0  0  1  0  0  0  0  0  0  0  0
   -1.4063   -0.2108    2.6716 N   0  0  0  1  0  0  0  0  0  0  0  0
   -2.5705    2.8337    3.2988 H   0  0  0  1  0  0  0  0  0  0  0  0
   -3.8139    1.2550    3.4831 C   0  0  0  1  0  0  0  0  0  0  0  0
   -0.9247   -1.5784    2.7964 C   0  0  0  1  0  0  0  0  0  0  0  0
   -4.2737    1.7456    4.8422 C   0  0  0  1  0  0  0  0  0  0  0  0
   -4.2468    0.2086    3.0021 O   0  0  0  1  0  0  0  0  0  0  0  0
   -1.3971    0.3679    3.4625 H   0  0  0  1  0  0  0  0  0  0  0  0
   -0.6991   -1.9677    1.8256 H   0  0  0  1  0  0  0  0  0  0  0  0
   -1.6797   -2.1817    3.2557 H   0  0  0  1  0  0  0  0  0  0  0  0
   -0.0411   -1.5915    3.3997 H   0  0  0  1  0  0  0  0  0  0  0  0
   -3.4219    1.9214    5.4654 H   0  0  0  1  0  0  0  0  0  0  0  0
   -4.9000    1.0057    5.2951 H   0  0  0  1  0  0  0  0  0  0  0  0
   -4.8236    2.6560    4.7251 H   0  0  0  1  0  0  0  0  0  0  0  0
   -1.4440    2.7005    1.0114 C   0  0  0  1  0  0  0  0  0  0  0  0
   -1.9259    4.1258    0.9646 C   0  0  0  1  0  0  0  0  0  0  0  0
   -1.0699    5.1918    0.7354 C   0  0  0  1  0  0  0  0  0  0  0  0
   -1.5651    6.4819    0.7080 C   0  0  0  1  0  0  0  0  0  0  0  0
   -2.9183    6.7095    0.9043 C   0  0  0  1  0  0  0  0  0  0  0  0
   -3.7716    5.6465    1.1328 C   0  0  0  1  0  0  0  0  0  0  0  0
   -3.2752    4.3525    1.1604 C   0  0  0  1  0  0  0  0  0  0  0  0
   -3.3325    7.9990    0.8585 O   0  0  0  1  0  0  0  0  0  0  0  0
   -0.7673    7.5562    0.4928 O   0  0  0  1  0  0  0  0  0  0  0  0
   -1.1592    2.4157    0.0201 H   0  0  0  1  0  0  0  0  0  0  0  0
   -0.5890    2.6621    1.6536 H   0  0  0  1  0  0  0  0  0  0  0  0
   -0.0553    5.0208    0.5841 H   0  0  0  1  0  0  0  0  0  0  0  0
   -4.7862    5.8175    1.2841 H   0  0  0  1  0  0  0  0  0  0  0  0
   -3.9180    3.5524    1.3283 H   0  0  0  1  0  0  0  0  0  0  0  0
   -3.5589    8.2310   -0.0451 H   0  0  0  1  0  0  0  0  0  0  0  0
   -0.0908    7.5942    1.1729 H   0  0  0  1  0  0  0  0  0  0  0  0
  1  4  1  0  0  0  0
  2  4  1  0  0  0  0
  2  5  2  0  0  0  0
  2  6  1  0  0  0  0
  3  4  1  0  0  0  0
  3  7  1  0  0  0  0
  3  8  1  0  0  0  0
  4 19  1  0  0  0  0
  6  9  1  0  0  0  0
  6 12  1  0  0  0  0
  8 10  1  0  0  0  0
  8 11  2  0  0  0  0
  9 13  1  0  0  0  0
  9 14  1  0  0  0  0
  9 15  1  0  0  0  0
 10 16  1  0  0  0  0
 10 17  1  0  0  0  0
 10 18  1  0  0  0  0
 19 20  1  0  0  0  0
 19 28  1  0  0  0  0
 19 29  1  0  0  0  0
 20 21  4  0  0  0  0
 20 25  4  0  0  0  0
 21 22  4  0  0  0  0
 21 30  1  0  0  0  0
 22 23  4  0  0  0  0
 22 27  1  0  0  0  0
 23 24  4  0  0  0  0
 23 26  1  0  0  0  0
 24 25  4  0  0  0  0
 24 31  1  0  0  0  0
 25 32  1  0  0  0  0
 26 33  1  0  0  0  0
 27 34  1  0  0  0  0
M  END
> <BCLConfClusterSize>
1

> <ConfClashScore>
0 

> <ConfOneFourInteractionScore>
-0.949001 

> <ConfScore>
-0.146549 

> <ConfScorePBest>
0.00632436 

> <ConfTolerance>
0.293515 

> <RosettaParamsInstructions>
M  ROOT 3
M  POLY_N_BB 3
M  POLY_CA_BB 4
M  POLY_C_BB 2
M  POLY_O_BB 5
M  POLY_IGNORE 9 10 11 12 13 14 15 16 17 18 
M  POLY_UPPER 6
M  POLY_LOWER 8
M  POLY_CHG 0
M  POLY_PROPERTIES ALPHA_AA L_AA PROTEIN AROMATIC POLYMER 
M  END

$$$$



 34 34  0  0  0  0  0  0  0  0999 V2000
   -1.1468    2.0674   -0.6332 H   0  0  0  1  0  0  0  0  0  0  0  0
   -1.0464    0.3296    0.5989 C   0  0  0  1  0  0  0  0  0  0  0  0
   -3.0589    1.5396   -0.0047 N   0  0  0  1  0  0  0  0  0  0  0  0
   -1.6335    1.6955    0.2442 C   0  0  0  1  0  0  0  0  0  0  0  0
   -1.4158   -0.2925    1.5939 O   0  0  0  1  0  0  0  0  0  0  0  0
   -0.1150   -0.0988   -0.2678 N   0  0  0  1  0  0  0  0  0  0  0  0
   -3.6199    1.1403    0.6925 H   0  0  0  1  0  0  0  0  0  0  0  0
   -3.6422    1.9308   -1.1769 C   0  0  0  1  0  0  0  0  0  0  0  0
    0.4308   -1.4426   -0.1488 C   0  0  0  1  0  0  0  0  0  0  0  0
   -5.1528    1.7993   -1.1752 C   0  0  0  1  0  0  0  0  0  0  0  0
   -2.9885    2.3419   -2.1177 O   0  0  0  1  0  0  0  0  0  0  0  0
    0.1981    0.4947   -0.9821 H   0  0  0  1  0  0  0  0  0  0  0  0
    0.2917   -1.7974    0.8510 H   0  0  0  1  0  0  0  0  0  0  0  0
    1.4757   -1.4246   -0.3785 H   0  0  0  1  0  0  0  0  0  0  0  0
   -0.0737   -2.0939   -0.8316 H   0  0  0  1  0  0  0  0  0  0  0  0
   -5.4929    1.5737   -2.1643 H   0  0  0  1  0  0  0  0  0  0  0  0
   -5.5903    2.7197   -0.8491 H   0  0  0  1  0  0  0  0  0  0  0  0
   -5.4412    1.0116   -0.5108 H   0  0  0  1  0  0  0  0  0  0  0  0
   -1.4344    2.6959    1.3865 C   0  0  0  1  0  0  0  0  0  0  0  0
   -1.9292    4.0887    1.0492 C   0  0  0  1  0  0  0  0  0  0  0  0
   -1.0500    5.1263    0.7809 C   0  0  0  1  0  0  0  0  0  0  0  0
   -1.5328    6.4045    0.5722 C   0  0  0  1  0  0  0  0  0  0  0  0
   -2.8964    6.6478    0.6257 C   0  0  0  1  0  0  0  0  0  0  0  0
   -3.7729    5.6132    0.8932 C   0  0  0  1  0  0  0  0  0  0  0  0
   -3.2889    4.3312    1.1026 C   0  0  0  1  0  0  0  0  0  0  0  0
   -3.3456    7.9085    0.4124 O   0  0  0  1  0  0  0  0  0  0  0  0
   -0.6148    7.3692    0.3205 O   0  0  0  1  0  0  0  0  0  0  0  0
   -0.3901    2.7509    1.6128 H   0  0  0  1  0  0  0  0  0  0  0  0
   -1.9677    2.3435    2.2446 H   0  0  0  1  0  0  0  0  0  0  0  0
   -0.0272    4.9431    0.7368 H   0  0  0  1  0  0  0  0  0  0  0  0
   -4.7956    5.7965    0.9373 H   0  0  0  1  0  0  0  0  0  0  0  0
   -3.9488    3.5520    1.2999 H   0  0  0  1  0  0  0  0  0  0  0  0
   -3.1643    8.4484    1.1852 H   0  0  0  1  0  0  0  0  0  0  0  0
   -0.6783    8.0544    0.9899 H   0  0  0  1  0  0  0  0  0  0  0  0
  1  4  1  0  0  0  0
  2  4  1  0  0  0  0
  2  5  2  0  0  0  0
  2  6  1  0  0  0  0
  3  4  1  0  0  0  0
  3  7  1  0  0  0  0
  3  8  1  0  0  0  0
  4 19  1  0  0  0  0
  6  9  1  0  0  0  0
  6 12  1  0  0  0  0
  8 10  1  0  0  0  0
  8 11  2  0  0  0  0
  9 13  1  0  0  0  0
  9 14  1  0  0  0  0
  9 15  1  0  0  0  0
 10 16  1  0  0  0  0
 10 17  1  0  0  0  0
 10 18  1  0  0  0  0
 19 20  1  0  0  0  0
 19 28  1  0  0  0  0
 19 29  1  0  0  0  0
 20 21  4  0  0  0  0
 20 25  4  0  0  0  0
 21 22  4  0  0  0  0
 21 30  1  0  0  0  0
 22 23  4  0  0  0  0
 22 27  1  0  0  0  0
 23 24  4  0  0  0  0
 23 26  1  0  0  0  0
 24 25  4  0  0  0  0
 24 31  1  0  0  0  0
 25 32  1  0  0  0  0
 26 33  1  0  0  0  0
 27 34  1  0  0  0  0
M  END
> <BCLConfClusterSize>
1

> <ConfClashScore>
0 

> <ConfOneFourInteractionScore>
-0.978947 

> <ConfScore>
-0.146357 

> <ConfScorePBest>
0.00629587 

> <ConfTolerance>
0.256649 

> <RosettaParamsInstructions>
M  ROOT 3
M  POLY_N_BB 3
M  POLY_CA_BB 4
M  POLY_C_BB 2
M  POLY_O_BB 5
M  POLY_IGNORE 9 10 11 12 13 14 15 16 17 18 
M  POLY_UPPER 6
M  POLY_LOWER 8
M  POLY_CHG 0
M  POLY_PROPERTIES ALPHA_AA L_AA PROTEIN AROMATIC POLYMER 
M  END

$$$$



 34 34  0  0  0  0  0  0  0  0999 V2000
   -0.8276    2.8667   -1.0963 H   0  0  0  1  0  0  0  0  0  0  0  0
   -0.3899    0.9055   -0.4254 C   0  0  0  1  0  0  0  0  0  0  0  0
   -2.6032    1.8127   -0.9421 N   0  0  0  1  0  0  0  0  0  0  0  0
   -1.2749    2.1483   -0.4415 C   0  0  0  1  0  0  0  0  0  0  0  0
   -0.6961   -0.1046    0.1815 O   0  0  0  1  0  0  0  0  0  0  0  0
    0.7649    0.9209   -1.1005 N   0  0  0  1  0  0  0  0  0  0  0  0
   -3.1255    1.1560   -0.4358 H   0  0  0  1  0  0  0  0  0  0  0  0
   -3.1661    2.3376   -2.0479 C   0  0  0  1  0  0  0  0  0  0  0  0
    1.7987   -0.1034   -1.1064 C   0  0  0  1  0  0  0  0  0  0  0  0
   -4.4814    1.6759   -2.4383 C   0  0  0  1  0  0  0  0  0  0  0  0
   -2.6902    3.2632   -2.7039 O   0  0  0  1  0  0  0  0  0  0  0  0
    0.9339    1.7117   -1.6540 H   0  0  0  1  0  0  0  0  0  0  0  0
    1.4074   -1.0033   -1.5331 H   0  0  0  1  0  0  0  0  0  0  0  0
    2.1173   -0.2939   -0.1029 H   0  0  0  1  0  0  0  0  0  0  0  0
    2.6313    0.2339   -1.6876 H   0  0  0  1  0  0  0  0  0  0  0  0
   -4.8667    1.1273   -1.6043 H   0  0  0  1  0  0  0  0  0  0  0  0
   -4.3151    1.0083   -3.2578 H   0  0  0  1  0  0  0  0  0  0  0  0
   -5.1864    2.4272   -2.7271 H   0  0  0  1  0  0  0  0  0  0  0  0
   -1.3579    2.7681    0.9569 C   0  0  0  1  0  0  0  0  0  0  0  0
   -1.9279    4.1613    0.9515 C   0  0  0  1  0  0  0  0  0  0  0  0
   -1.0927    5.2518    0.7648 C   0  0  0  1  0  0  0  0  0  0  0  0
   -1.6161    6.5310    0.7653 C   0  0  0  1  0  0  0  0  0  0  0  0
   -2.9768    6.7233    0.9471 C   0  0  0  1  0  0  0  0  0  0  0  0
   -3.8093    5.6359    1.1332 C   0  0  0  1  0  0  0  0  0  0  0  0
   -3.2847    4.3529    1.1327 C   0  0  0  1  0  0  0  0  0  0  0  0
   -3.4666    7.9869    0.9383 O   0  0  0  1  0  0  0  0  0  0  0  0
   -0.7394    7.5482    0.5825 O   0  0  0  1  0  0  0  0  0  0  0  0
   -0.3724    2.8050    1.3721 H   0  0  0  1  0  0  0  0  0  0  0  0
   -1.9799    2.1480    1.5679 H   0  0  0  1  0  0  0  0  0  0  0  0
   -0.0724    5.1074    0.6244 H   0  0  0  1  0  0  0  0  0  0  0  0
   -4.8296    5.7804    1.2736 H   0  0  0  1  0  0  0  0  0  0  0  0
   -3.9118    3.5345    1.2688 H   0  0  0  1  0  0  0  0  0  0  0  0
   -3.5165    8.3050    0.0339 H   0  0  0  1  0  0  0  0  0  0  0  0
    0.1225    7.2929    0.9193 H   0  0  0  1  0  0  0  0  0  0  0  0
  1  4  1  0  0  0  0
  2  4  1  0  0  0  0
  2  5  2  0  0  0  0
  2  6  1  0  0  0  0
  3  4  1  0  0  0  0
  3  7  1  0  0  0  0
  3  8  1  0  0  0  0
  4 19  1  0  0  0  0
  6  9  1  0  0  0  0
  6 12  1  0  0  0  0
  8 10  1  0  0  0  0
  8 11  2  0  0  0  0
  9 13  1  0  0  0  0
  9 14  1  0  0  0  0
  9 15  1  0  0  0  0
 10 16  1  0  0  0  0
 10 17  1  0  0  0  0
 10 18  1  0  0  0  0
 19 20  1  0  0  0  0
 19 28  1  0  0  0  0
 19 29  1  0  0  0  0
 20 21  4  0  0  0  0
 20 25  4  0  0  0  0
 21 22  4  0  0  0  0
 21 30  1  0  0  0  0
 22 23  4  0  0  0  0
 22 27  1  0  0  0  0
 23 24  4  0  0  0  0
 23 26  1  0  0  0  0
 24 25  4  0  0  0  0
 24 31  1  0  0  0  0
 25 32  1  0  0  0  0
 26 33  1  0  0  0  0
 27 34  1  0  0  0  0
M  END
> <BCLConfClusterSize>
1

> <ConfClashScore>
0 

> <ConfOneFourInteractionScore>
-0.990503 

> <ConfScore>
-0.146318 

> <ConfScorePBest>
0.00626739 

> <ConfTolerance>
0.35078 

> <RosettaParamsInstructions>
M  ROOT 3
M  POLY_N_BB 3
M  POLY_CA_BB 4
M  POLY_C_BB 2
M  POLY_O_BB 5
M  POLY_IGNORE 9 10 11 12 13 14 15 16 17 18 
M  POLY_UPPER 6
M  POLY_LOWER 8
M  POLY_CHG 0
M  POLY_PROPERTIES ALPHA_AA L_AA PROTEIN AROMATIC POLYMER 
M  END

$$$$



 34 34  0  0  0  0  0  0  0  0999 V2000
   -2.0974    2.4193    3.0112 H   0  0  0  1  0  0  0  0  0  0  0  0
   -1.0245    0.6897    2.3978 C   0  0  0  1  0  0  0  0  0  0  0  0
   -0.0671    2.8535    3.0443 N   0  0  0  1  0  0  0  0  0  0  0  0
   -1.2193    2.2014    2.4400 C   0  0  0  1  0  0  0  0  0  0  0  0
   -0.2186    0.1788    1.6213 O   0  0  0  1  0  0  0  0  0  0  0  0
   -1.7577   -0.0646    3.2319 N   0  0  0  1  0  0  0  0  0  0  0  0
    0.8306    2.6060    2.7387 H   0  0  0  1  0  0  0  0  0  0  0  0
   -0.1905    3.7778    4.0011 C   0  0  0  1  0  0  0  0  0  0  0  0
   -1.6034   -1.5007    3.4097 C   0  0  0  1  0  0  0  0  0  0  0  0
    1.0917    4.1828    4.6924 C   0  0  0  1  0  0  0  0  0  0  0  0
   -1.2700    4.2786    4.3135 O   0  0  0  1  0  0  0  0  0  0  0  0
   -2.4488    0.3858    3.7610 H   0  0  0  1  0  0  0  0  0  0  0  0
   -0.5763   -1.7689    3.2753 H   0  0  0  1  0  0  0  0  0  0  0  0
   -2.2035   -2.0156    2.6888 H   0  0  0  1  0  0  0  0  0  0  0  0
   -1.9169   -1.7735    4.3957 H   0  0  0  1  0  0  0  0  0  0  0  0
    0.8752    4.9040    5.4526 H   0  0  0  1  0  0  0  0  0  0  0  0
    1.7628    4.6099    3.9768 H   0  0  0  1  0  0  0  0  0  0  0  0
    1.5445    3.3213    5.1369 H   0  0  0  1  0  0  0  0  0  0  0  0
   -1.4229    2.7132    1.0201 C   0  0  0  1  0  0  0  0  0  0  0  0
   -1.9332    4.1286    0.9709 C   0  0  0  1  0  0  0  0  0  0  0  0
   -1.0560    5.1742    0.7285 C   0  0  0  1  0  0  0  0  0  0  0  0
   -1.5244    6.4739    0.6888 C   0  0  0  1  0  0  0  0  0  0  0  0
   -2.8721    6.7314    0.8861 C   0  0  0  1  0  0  0  0  0  0  0  0
   -3.7466    5.6888    1.1279 C   0  0  0  1  0  0  0  0  0  0  0  0
   -3.2770    4.3852    1.1677 C   0  0  0  1  0  0  0  0  0  0  0  0
   -3.3079    8.0138    0.8372 O   0  0  0  1  0  0  0  0  0  0  0  0
   -0.7052    7.5291    0.4605 O   0  0  0  1  0  0  0  0  0  0  0  0
   -2.1301    2.0790    0.5276 H   0  0  0  1  0  0  0  0  0  0  0  0
   -0.4859    2.6710    0.5052 H   0  0  0  1  0  0  0  0  0  0  0  0
   -0.0455    4.9807    0.5764 H   0  0  0  1  0  0  0  0  0  0  0  0
   -4.7570    5.8824    1.2799 H   0  0  0  1  0  0  0  0  0  0  0  0
   -3.9358    3.6004    1.3456 H   0  0  0  1  0  0  0  0  0  0  0  0
   -3.8805    8.1288    0.0754 H   0  0  0  1  0  0  0  0  0  0  0  0
   -0.0150    7.5491    1.1274 H   0  0  0  1  0  0  0  0  0  0  0  0
  1  4  1  0  0  0  0
  2  4  1  0  0  0  0
  2  5  2  0  0  0  0
  2  6  1  0  0  0  0
  3  4  1  0  0  0  0
  3  7  1  0  0  0  0
  3  8  1  0  0  0  0
  4 19  1  0  0  0  0
  6  9  1  0  0  0  0
  6 12  1  0  0  0  0
  8 10  1  0  0  0  0
  8 11  2  0  0  0  0
  9 13  1  0  0  0  0
  9 14  1  0  0  0  0
  9 15  1  0  0  0  0
 10 16  1  0  0  0  0
 10 17  1  0  0  0  0
 10 18  1  0  0  0  0
 19 20  1  0  0  0  0
 19 28  1  0  0  0  0
 19 29  1  0  0  0  0
 20 21  4  0  0  0  0
 20 25  4  0  0  0  0
 21 22  4  0  0  0  0
 21 30  1  0  0  0  0
 22 23  4  0  0  0  0
 22 27  1  0  0  0  0
 23 24  4  0  0  0  0
 23 26  1  0  0  0  0
 24 25  4  0  0  0  0
 24 31  1  0  0  0  0
 25 32  1  0  0  0  0
 26 33  1  0  0  0  0
 27 34  1  0  0  0  0
M  END
> <BCLConfClusterSize>
1

> <ConfClashScore>
0 

> <ConfOneFourInteractionScore>
-0.98383 

> <ConfScore>
-0.144234 

> <ConfScorePBest>
0.00623891 

> <ConfTolerance>
0.291114 

> <RosettaParamsInstructions>
M  ROOT 3
M  POLY_N_BB 3
M  POLY_CA_BB 4
M  POLY_C_BB 2
M  POLY_O_BB 5
M  POLY_IGNORE 9 10 11 12 13 14 15 16 17 18 
M  POLY_UPPER 6
M  POLY_LOWER 8
M  POLY_CHG 0
M  POLY_PROPERTIES ALPHA_AA L_AA PROTEIN AROMATIC POLYMER 
M  END

$$$$



 34 34  0  0  0  0  0  0  0  0999 V2000
   -1.4876    2.3824   -0.9530 H   0  0  0  1  0  0  0  0  0  0  0  0
   -0.9670    0.4806   -0.0936 C   0  0  0  1  0  0  0  0  0  0  0  0
   -3.2153    1.5075   -0.2274 N   0  0  0  1  0  0  0  0  0  0  0  0
   -1.7960    1.8055   -0.1063 C   0  0  0  1  0  0  0  0  0  0  0  0
    0.1874    0.4578   -0.4607 O   0  0  0  1  0  0  0  0  0  0  0  0
   -1.6341   -0.6397    0.3579 N   0  0  0  1  0  0  0  0  0  0  0  0
   -3.8612    1.9587    0.3554 H   0  0  0  1  0  0  0  0  0  0  0  0
   -3.6415    0.6162   -1.1353 C   0  0  0  1  0  0  0  0  0  0  0  0
   -0.9956   -1.9450    0.4383 C   0  0  0  1  0  0  0  0  0  0  0  0
   -5.1354    0.3570   -1.1531 C   0  0  0  1  0  0  0  0  0  0  0  0
   -2.8836    0.0364   -1.9119 O   0  0  0  1  0  0  0  0  0  0  0  0
   -2.5705   -0.5534    0.6339 H   0  0  0  1  0  0  0  0  0  0  0  0
   -1.5745   -2.6600   -0.1081 H   0  0  0  1  0  0  0  0  0  0  0  0
   -0.9303   -2.2473    1.4627 H   0  0  0  1  0  0  0  0  0  0  0  0
   -0.0127   -1.8873    0.0195 H   0  0  0  1  0  0  0  0  0  0  0  0
   -5.4414   -0.0338   -0.2052 H   0  0  0  1  0  0  0  0  0  0  0  0
   -5.3651   -0.3511   -1.9216 H   0  0  0  1  0  0  0  0  0  0  0  0
   -5.6538    1.2732   -1.3450 H   0  0  0  1  0  0  0  0  0  0  0  0
   -1.5156    2.6279    1.1553 C   0  0  0  1  0  0  0  0  0  0  0  0
   -1.9414    4.0661    1.0283 C   0  0  0  1  0  0  0  0  0  0  0  0
   -0.9950    5.0517    0.7948 C   0  0  0  1  0  0  0  0  0  0  0  0
   -1.3862    6.3727    0.6837 C   0  0  0  1  0  0  0  0  0  0  0  0
   -2.7253    6.7114    0.8004 C   0  0  0  1  0  0  0  0  0  0  0  0
   -3.6687    5.7286    1.0332 C   0  0  0  1  0  0  0  0  0  0  0  0
   -3.2767    4.4037    1.1447 C   0  0  0  1  0  0  0  0  0  0  0  0
   -3.0844    8.0128    0.6824 O   0  0  0  1  0  0  0  0  0  0  0  0
   -0.4417    7.3187    0.4606 O   0  0  0  1  0  0  0  0  0  0  0  0
   -0.4644    2.6002    1.3532 H   0  0  0  1  0  0  0  0  0  0  0  0
   -2.0449    2.1870    1.9740 H   0  0  0  1  0  0  0  0  0  0  0  0
    0.0092    4.7972    0.7033 H   0  0  0  1  0  0  0  0  0  0  0  0
   -4.6729    5.9831    1.1247 H   0  0  0  1  0  0  0  0  0  0  0  0
   -3.9871    3.6637    1.3159 H   0  0  0  1  0  0  0  0  0  0  0  0
   -4.0373    8.0747    0.5838 H   0  0  0  1  0  0  0  0  0  0  0  0
   -0.7560    8.1672    0.7813 H   0  0  0  1  0  0  0  0  0  0  0  0
  1  4  1  0  0  0  0
  2  4  1  0  0  0  0
  2  5  2  0  0  0  0
  2  6  1  0  0  0  0
  3  4  1  0  0  0  0
  3  7  1  0  0  0  0
  3  8  1  0  0  0  0
  4 19  1  0  0  0  0
  6  9  1  0  0  0  0
  6 12  1  0  0  0  0
  8 10  1  0  0  0  0
  8 11  2  0  0  0  0
  9 13  1  0  0  0  0
  9 14  1  0  0  0  0
  9 15  1  0  0  0  0
 10 16  1  0  0  0  0
 10 17  1  0  0  0  0
 10 18  1  0  0  0  0
 19 20  1  0  0  0  0
 19 28  1  0  0  0  0
 19 29  1  0  0  0  0
 20 21  4  0  0  0  0
 20 25  4  0  0  0  0
 21 22  4  0  0  0  0
 21 30  1  0  0  0  0
 22 23  4  0  0  0  0
 22 27  1  0  0  0  0
 23 24  4  0  0  0  0
 23 26  1  0  0  0  0
 24 25  4  0  0  0  0
 24 31  1  0  0  0  0
 25 32  1  0  0  0  0
 26 33  1  0  0  0  0
 27 34  1  0  0  0  0
M  END
> <BCLConfClusterSize>
1

> <ConfClashScore>
0 

> <ConfOneFourInteractionScore>
-0.956443 

> <ConfScore>
-0.14096 

> <ConfScorePBest>
0.00621043 

> <ConfTolerance>
0.351818 

> <RosettaParamsInstructions>
M  ROOT 3
M  POLY_N_BB 3
M  POLY_CA_BB 4
M  POLY_C_BB 2
M  POLY_O_BB 5
M  POLY_IGNORE 9 10 11 12 13 14 15 16 17 18 
M  POLY_UPPER 6
M  POLY_LOWER 8
M  POLY_CHG 0
M  POLY_PROPERTIES ALPHA_AA L_AA PROTEIN AROMATIC POLYMER 
M  END

$$$$



 34 34  0  0  0  0  0  0  0  0999 V2000
   -3.1228    1.6691    0.5490 H   0  0  0  1  0  0  0  0  0  0  0  0
   -2.1501    2.2824   -1.2216 C   0  0  0  1  0  0  0  0  0  0  0  0
   -1.4857    0.4460    0.2368 N   0  0  0  1  0  0  0  0  0  0  0  0
   -2.1147    1.7579    0.2016 C   0  0  0  1  0  0  0  0  0  0  0  0
   -3.1203    2.9077   -1.6476 O   0  0  0  1  0  0  0  0  0  0  0  0
   -1.0707    2.0200   -1.9639 N   0  0  0  1  0  0  0  0  0  0  0  0
   -0.6369    0.3411    0.7153 H   0  0  0  1  0  0  0  0  0  0  0  0
   -2.0253   -0.6204   -0.3604 C   0  0  0  1  0  0  0  0  0  0  0  0
   -0.9448    2.4746   -3.3407 C   0  0  0  1  0  0  0  0  0  0  0  0
   -1.1511   -1.8582   -0.4136 C   0  0  0  1  0  0  0  0  0  0  0  0
   -3.1554   -0.6170   -0.8414 O   0  0  0  1  0  0  0  0  0  0  0  0
   -0.3382    1.5036   -1.5675 H   0  0  0  1  0  0  0  0  0  0  0  0
   -1.9181    2.5777   -3.7732 H   0  0  0  1  0  0  0  0  0  0  0  0
   -0.3794    1.7600   -3.9016 H   0  0  0  1  0  0  0  0  0  0  0  0
   -0.4444    3.4202   -3.3595 H   0  0  0  1  0  0  0  0  0  0  0  0
   -0.9781   -2.2162    0.5797 H   0  0  0  1  0  0  0  0  0  0  0  0
   -0.2158   -1.6145   -0.8726 H   0  0  0  1  0  0  0  0  0  0  0  0
   -1.6426   -2.6173   -0.9855 H   0  0  0  1  0  0  0  0  0  0  0  0
   -1.3852    2.7353    1.1140 C   0  0  0  1  0  0  0  0  0  0  0  0
   -1.9164    4.1405    1.0178 C   0  0  0  1  0  0  0  0  0  0  0  0
   -1.0832    5.2441    0.9212 C   0  0  0  1  0  0  0  0  0  0  0  0
   -1.6244    6.5134    0.8407 C   0  0  0  1  0  0  0  0  0  0  0  0
   -3.0001    6.6824    0.8512 C   0  0  0  1  0  0  0  0  0  0  0  0
   -3.8307    5.5820    0.9475 C   0  0  0  1  0  0  0  0  0  0  0  0
   -3.2882    4.3089    1.0283 C   0  0  0  1  0  0  0  0  0  0  0  0
   -3.5773    7.9059    0.7693 O   0  0  0  1  0  0  0  0  0  0  0  0
   -0.7493    7.5446    0.7539 O   0  0  0  1  0  0  0  0  0  0  0  0
   -0.3495    2.7436    0.8456 H   0  0  0  1  0  0  0  0  0  0  0  0
   -1.4896    2.4003    2.1249 H   0  0  0  1  0  0  0  0  0  0  0  0
   -0.0511    5.1171    0.9093 H   0  0  0  1  0  0  0  0  0  0  0  0
   -4.8628    5.7090    0.9594 H   0  0  0  1  0  0  0  0  0  0  0  0
   -3.9134    3.4806    1.0967 H   0  0  0  1  0  0  0  0  0  0  0  0
   -2.9782    8.5672    1.1235 H   0  0  0  1  0  0  0  0  0  0  0  0
   -0.2188    7.4488   -0.0405 H   0  0  0  1  0  0  0  0  0  0  0  0
  1  4  1  0  0  0  0
  2  4  1  0  0  0  0
  2  5  2  0  0  0  0
  2  6  1  0  0  0  0
  3  4  1  0  0  0  0
  3  7  1  0  0  0  0
  3  8  1  0  0  0  0
  4 19  1  0  0  0  0
  6  9  1  0  0  0  0
  6 12  1  0  0  0  0
  8 10  1  0  0  0  0
  8 11  2  0  0  0  0
  9 13  1  0  0  0  0
  9 14  1  0  0  0  0
  9 15  1  0  0  0  0
 10 16  1  0  0  0  0
 10 17  1  0  0  0  0
 10 18  1  0  0  0  0
 19 20  1  0  0  0  0
 19 28  1  0  0  0  0
 19 29  1  0  0  0  0
 20 21  4  0  0  0  0
 20 25  4  0  0  0  0
 21 22  4  0  0  0  0
 21 30  1  0  0  0  0
 22 23  4  0  0  0  0
 22 27  1  0  0  0  0
 23 24  4  0  0  0  0
 23 26  1  0  0  0  0
 24 25  4  0  0  0  0
 24 31  1  0  0  0  0
 25 32  1  0  0  0  0
 26 33  1  0  0  0  0
 27 34  1  0  0  0  0
M  END
> <BCLConfClusterSize>
1

> <ConfClashScore>
0 

> <ConfOneFourInteractionScore>
-0.960318 

> <ConfScore>
-0.140189 

> <ConfScorePBest>
0.00618195 

> <ConfTolerance>
0.282537 

> <RosettaParamsInstructions>
M  ROOT 3
M  POLY_N_BB 3
M  POLY_CA_BB 4
M  POLY_C_BB 2
M  POLY_O_BB 5
M  POLY_IGNORE 9 10 11 12 13 14 15 16 17 18 
M  POLY_UPPER 6
M  POLY_LOWER 8
M  POLY_CHG 0
M  POLY_PROPERTIES ALPHA_AA L_AA PROTEIN AROMATIC POLYMER 
M  END

$$$$



 34 34  0  0  0  0  0  0  0  0999 V2000
   -1.8873    2.2974    3.2027 H   0  0  0  1  0  0  0  0  0  0  0  0
   -0.5371    0.8088    2.5333 C   0  0  0  1  0  0  0  0  0  0  0  0
    0.0094    3.1178    3.1211 N   0  0  0  1  0  0  0  0  0  0  0  0
   -1.0247    2.2541    2.5711 C   0  0  0  1  0  0  0  0  0  0  0  0
    0.3207    0.4532    1.7263 O   0  0  0  1  0  0  0  0  0  0  0  0
   -1.0741   -0.0649    3.4100 N   0  0  0  1  0  0  0  0  0  0  0  0
    0.7755    3.3559    2.5582 H   0  0  0  1  0  0  0  0  0  0  0  0
   -0.0494    3.5974    4.3667 C   0  0  0  1  0  0  0  0  0  0  0  0
   -0.6077   -1.4429    3.4469 C   0  0  0  1  0  0  0  0  0  0  0  0
    1.1792    4.3692    4.8556 C   0  0  0  1  0  0  0  0  0  0  0  0
   -0.9870    3.4738    5.1374 O   0  0  0  1  0  0  0  0  0  0  0  0
   -1.7797    0.2291    4.0232 H   0  0  0  1  0  0  0  0  0  0  0  0
    0.2784   -1.5042    4.0436 H   0  0  0  1  0  0  0  0  0  0  0  0
   -0.3912   -1.7727    2.4523 H   0  0  0  1  0  0  0  0  0  0  0  0
   -1.3674   -2.0651    3.8720 H   0  0  0  1  0  0  0  0  0  0  0  0
    1.3083    5.2491    4.2607 H   0  0  0  1  0  0  0  0  0  0  0  0
    2.0472    3.7496    4.7687 H   0  0  0  1  0  0  0  0  0  0  0  0
    1.0407    4.6483    5.8793 H   0  0  0  1  0  0  0  0  0  0  0  0
   -1.4327    2.7128    1.1908 C   0  0  0  1  0  0  0  0  0  0  0  0
   -1.9183    4.1300    1.0434 C   0  0  0  1  0  0  0  0  0  0  0  0
   -1.0497    5.2033    0.9203 C   0  0  0  1  0  0  0  0  0  0  0  0
   -1.5497    6.4855    0.7929 C   0  0  0  1  0  0  0  0  0  0  0  0
   -2.9195    6.6977    0.7828 C   0  0  0  1  0  0  0  0  0  0  0  0
   -3.7853    5.6274    0.9056 C   0  0  0  1  0  0  0  0  0  0  0  0
   -3.2841    4.3413    1.0333 C   0  0  0  1  0  0  0  0  0  0  0  0
   -3.4569    7.9353    0.6552 O   0  0  0  1  0  0  0  0  0  0  0  0
   -0.7410    7.5666    0.6750 O   0  0  0  1  0  0  0  0  0  0  0  0
   -2.2198    2.0684    0.8590 H   0  0  0  1  0  0  0  0  0  0  0  0
   -0.5829    2.5973    0.5509 H   0  0  0  1  0  0  0  0  0  0  0  0
   -0.0220    5.0438    0.9238 H   0  0  0  1  0  0  0  0  0  0  0  0
   -4.8130    5.7869    0.9021 H   0  0  0  1  0  0  0  0  0  0  0  0
   -3.9357    3.5356    1.1217 H   0  0  0  1  0  0  0  0  0  0  0  0
   -3.3461    8.4191    1.4769 H   0  0  0  1  0  0  0  0  0  0  0  0
   -0.2251    7.4944   -0.1314 H   0  0  0  1  0  0  0  0  0  0  0  0
  1  4  1  0  0  0  0
  2  4  1  0  0  0  0
  2  5  2  0  0  0  0
  2  6  1  0  0  0  0
  3  4  1  0  0  0  0
  3  7  1  0  0  0  0
  3  8  1  0  0  0  0
  4 19  1  0  0  0  0
  6  9  1  0  0  0  0
  6 12  1  0  0  0  0
  8 10  1  0  0  0  0
  8 11  2  0  0  0  0
  9 13  1  0  0  0  0
  9 14  1  0  0  0  0
  9 15  1  0  0  0  0
 10 16  1  0  0  0  0
 10 17  1  0  0  0  0
 10 18  1  0  0  0  0
 19 20  1  0  0  0  0
 19 28  1  0  0  0  0
 19 29  1  0  0  0  0
 20 21  4  0  0  0  0
 20 25  4  0  0  0  0
 21 22  4  0  0  0  0
 21 30  1  0  0  0  0
 22 23  4  0  0  0  0
 22 27  1  0  0  0  0
 23 24  4  0  0  0  0
 23 26  1  0  0  0  0
 24 25  4  0  0  0  0
 24 31  1  0  0  0  0
 25 32  1  0  0  0  0
 26 33  1  0  0  0  0
 27 34  1  0  0  0  0
M  END
> <BCLConfClusterSize>
1

> <ConfClashScore>
0 

> <ConfOneFourInteractionScore>
-0.979134 

> <ConfScore>
-0.139355 

> <ConfScorePBest>
0.00615347 

> <ConfTolerance>
0.294642 

> <RosettaParamsInstructions>
M  ROOT 3
M  POLY_N_BB 3
M  POLY_CA_BB 4
M  POLY_C_BB 2
M  POLY_O_BB 5
M  POLY_IGNORE 9 10 11 12 13 14 15 16 17 18 
M  POLY_UPPER 6
M  POLY_LOWER 8
M  POLY_CHG 0
M  POLY_PROPERTIES ALPHA_AA L_AA PROTEIN AROMATIC POLYMER 
M  END

$$$$



 34 34  0  0  0  0  0  0  0  0999 V2000
   -2.2808    2.3472    3.1862 H   0  0  0  1  0  0  0  0  0  0  0  0
   -0.8748    0.8216    2.8581 C   0  0  0  1  0  0  0  0  0  0  0  0
   -0.4174    3.2091    3.3113 N   0  0  0  1  0  0  0  0  0  0  0  0
   -1.3327    2.2583    2.6982 C   0  0  0  1  0  0  0  0  0  0  0  0
    0.1509    0.4218    2.3322 O   0  0  0  1  0  0  0  0  0  0  0  0
   -1.6624    0.0408    3.6031 N   0  0  0  1  0  0  0  0  0  0  0  0
    0.4774    3.3193    2.9271 H   0  0  0  1  0  0  0  0  0  0  0  0
   -0.7545    3.9371    4.3797 C   0  0  0  1  0  0  0  0  0  0  0  0
   -1.5268   -1.4028    3.7276 C   0  0  0  1  0  0  0  0  0  0  0  0
    0.2480    4.9945    4.7993 C   0  0  0  1  0  0  0  0  0  0  0  0
   -1.8066    3.7743    4.9963 O   0  0  0  1  0  0  0  0  0  0  0  0
   -2.3859    0.4728    4.1034 H   0  0  0  1  0  0  0  0  0  0  0  0
   -0.7729   -1.7503    3.0525 H   0  0  0  1  0  0  0  0  0  0  0  0
   -2.4598   -1.8701    3.4910 H   0  0  0  1  0  0  0  0  0  0  0  0
   -1.2480   -1.6494    4.7308 H   0  0  0  1  0  0  0  0  0  0  0  0
    0.5058    5.5977    3.9539 H   0  0  0  1  0  0  0  0  0  0  0  0
    1.1281    4.5200    5.1802 H   0  0  0  1  0  0  0  0  0  0  0  0
   -0.1825    5.6120    5.5597 H   0  0  0  1  0  0  0  0  0  0  0  0
   -1.5430    2.6086    1.2342 C   0  0  0  1  0  0  0  0  0  0  0  0
   -1.9354    4.0574    1.0207 C   0  0  0  1  0  0  0  0  0  0  0  0
   -0.9827    5.0526    0.8675 C   0  0  0  1  0  0  0  0  0  0  0  0
   -1.3739    6.3747    0.7713 C   0  0  0  1  0  0  0  0  0  0  0  0
   -2.7192    6.7051    0.8227 C   0  0  0  1  0  0  0  0  0  0  0  0
   -3.6689    5.7128    0.9755 C   0  0  0  1  0  0  0  0  0  0  0  0
   -3.2768    4.3867    1.0719 C   0  0  0  1  0  0  0  0  0  0  0  0
   -3.0283    8.0204    0.7167 O   0  0  0  1  0  0  0  0  0  0  0  0
   -0.4798    7.3827    0.6259 O   0  0  0  1  0  0  0  0  0  0  0  0
   -2.3188    1.9844    0.8427 H   0  0  0  1  0  0  0  0  0  0  0  0
   -0.6322    2.4209    0.7049 H   0  0  0  1  0  0  0  0  0  0  0  0
    0.0264    4.8045    0.8249 H   0  0  0  1  0  0  0  0  0  0  0  0
   -4.6780    5.9610    1.0181 H   0  0  0  1  0  0  0  0  0  0  0  0
   -3.9918    3.6397    1.1829 H   0  0  0  1  0  0  0  0  0  0  0  0
   -3.9347    8.1604    1.0003 H   0  0  0  1  0  0  0  0  0  0  0  0
   -0.8932    8.1131    0.1599 H   0  0  0  1  0  0  0  0  0  0  0  0
  1  4  1  0  0  0  0
  2  4  1  0  0  0  0
  2  5  2  0  0  0  0
  2  6  1  0  0  0  0
  3  4  1  0  0  0  0
  3  7  1  0  0  0  0
  3  8  1  0  0  0  0
  4 19  1  0  0  0  0
  6  9  1  0  0  0  0
  6 12  1  0  0  0  0
  8 10  1  0  0  0  0
  8 11  2  0  0  0  0
  9 13  1  0  0  0  0
  9 14  1  0  0  0  0
  9 15  1  0  0  0  0
 10 16  1  0  0  0  0
 10 17  1  0  0  0  0
 10 18  1  0  0  0  0
 19 20  1  0  0  0  0
 19 28  1  0  0  0  0
 19 29  1  0  0  0  0
 20 21  4  0  0  0  0
 20 25  4  0  0  0  0
 21 22  4  0  0  0  0
 21 30  1  0  0  0  0
 22 23  4  0  0  0  0
 22 27  1  0  0  0  0
 23 24  4  0  0  0  0
 23 26  1  0  0  0  0
 24 25  4  0  0  0  0
 24 31  1  0  0  0  0
 25 32  1  0  0  0  0
 26 33  1  0  0  0  0
 27 34  1  0  0  0  0
M  END
> <BCLConfClusterSize>
1

> <ConfClashScore>
0 

> <ConfOneFourInteractionScore>
-0.979134 

> <ConfScore>
-0.133029 

> <ConfScorePBest>
0.00612499 

> <ConfTolerance>
0.409221 

> <RosettaParamsInstructions>
M  ROOT 3
M  POLY_N_BB 3
M  POLY_CA_BB 4
M  POLY_C_BB 2
M  POLY_O_BB 5
M  POLY_IGNORE 9 10 11 12 13 14 15 16 17 18 
M  POLY_UPPER 6
M  POLY_LOWER 8
M  POLY_CHG 0
M  POLY_PROPERTIES ALPHA_AA L_AA PROTEIN AROMATIC POLYMER 
M  END

$$$$



 34 34  0  0  0  0  0  0  0  0999 V2000
   -0.7567    2.8879    3.1878 H   0  0  0  1  0  0  0  0  0  0  0  0
   -0.1981    0.9403    2.6430 C   0  0  0  1  0  0  0  0  0  0  0  0
    0.8322    3.0297    1.8698 N   0  0  0  1  0  0  0  0  0  0  0  0
   -0.4325    2.3972    2.2939 C   0  0  0  1  0  0  0  0  0  0  0  0
   -0.8556    0.3800    3.5190 O   0  0  0  1  0  0  0  0  0  0  0  0
    0.7568    0.3220    1.9424 N   0  0  0  1  0  0  0  0  0  0  0  0
    0.8813    3.4396    0.9810 H   0  0  0  1  0  0  0  0  0  0  0  0
    1.9123    3.0626    2.6555 C   0  0  0  1  0  0  0  0  0  0  0  0
    1.0517   -1.1014    2.0119 C   0  0  0  1  0  0  0  0  0  0  0  0
    3.1363    3.7350    2.0649 C   0  0  0  1  0  0  0  0  0  0  0  0
    1.9314    2.5842    3.7865 O   0  0  0  1  0  0  0  0  0  0  0  0
    1.2995    0.8681    1.3361 H   0  0  0  1  0  0  0  0  0  0  0  0
    0.2111   -1.6207    2.4226 H   0  0  0  1  0  0  0  0  0  0  0  0
    1.9069   -1.2582    2.6355 H   0  0  0  1  0  0  0  0  0  0  0  0
    1.2539   -1.4719    1.0287 H   0  0  0  1  0  0  0  0  0  0  0  0
    3.4774    3.1762    1.2186 H   0  0  0  1  0  0  0  0  0  0  0  0
    3.9114    3.7749    2.8015 H   0  0  0  1  0  0  0  0  0  0  0  0
    2.8839    4.7284    1.7578 H   0  0  0  1  0  0  0  0  0  0  0  0
   -1.5050    2.6365    1.2438 C   0  0  0  1  0  0  0  0  0  0  0  0
   -1.9286    4.0704    1.0693 C   0  0  0  1  0  0  0  0  0  0  0  0
   -1.0142    5.1045    0.9432 C   0  0  0  1  0  0  0  0  0  0  0  0
   -1.4581    6.4045    0.7904 C   0  0  0  1  0  0  0  0  0  0  0  0
   -2.8175    6.6735    0.7578 C   0  0  0  1  0  0  0  0  0  0  0  0
   -3.7291    5.6423    0.8836 C   0  0  0  1  0  0  0  0  0  0  0  0
   -3.2841    4.3385    1.0368 C   0  0  0  1  0  0  0  0  0  0  0  0
   -3.1787    7.9702    0.6000 O   0  0  0  1  0  0  0  0  0  0  0  0
   -0.6400    7.4777    0.6651 O   0  0  0  1  0  0  0  0  0  0  0  0
   -2.3689    2.0682    1.5190 H   0  0  0  1  0  0  0  0  0  0  0  0
   -1.1313    2.2860    0.3045 H   0  0  0  1  0  0  0  0  0  0  0  0
    0.0058    4.9023    0.9635 H   0  0  0  1  0  0  0  0  0  0  0  0
   -4.7490    5.8446    0.8632 H   0  0  0  1  0  0  0  0  0  0  0  0
   -3.9701    3.5621    1.1274 H   0  0  0  1  0  0  0  0  0  0  0  0
   -3.3208    8.3704    1.4609 H   0  0  0  1  0  0  0  0  0  0  0  0
   -0.8900    7.9821   -0.1125 H   0  0  0  1  0  0  0  0  0  0  0  0
  1  4  1  0  0  0  0
  2  4  1  0  0  0  0
  2  5  2  0  0  0  0
  2  6  1  0  0  0  0
  3  4  1  0  0  0  0
  3  7  1  0  0  0  0
  3  8  1  0  0  0  0
  4 19  1  0  0  0  0
  6  9  1  0  0  0  0
  6 12  1  0  0  0  0
  8 10  1  0  0  0  0
  8 11  2  0  0  0  0
  9 13  1  0  0  0  0
  9 14  1  0  0  0  0
  9 15  1  0  0  0  0
 10 16  1  0  0  0  0
 10 17  1  0  0  0  0
 10 18  1  0  0  0  0
 19 20  1  0  0  0  0
 19 28  1  0  0  0  0
 19 29  1  0  0  0  0
 20 21  4  0  0  0  0
 20 25  4  0  0  0  0
 21 22  4  0  0  0  0
 21 30  1  0  0  0  0
 22 23  4  0  0  0  0
 22 27  1  0  0  0  0
 23 24  4  0  0  0  0
 23 26  1  0  0  0  0
 24 25  4  0  0  0  0
 24 31  1  0  0  0  0
 25 32  1  0  0  0  0
 26 33  1  0  0  0  0
 27 34  1  0  0  0  0
M  END
> <BCLConfClusterSize>
1

> <ConfClashScore>
0 

> <ConfOneFourInteractionScore>
-0.956443 

> <ConfScore>
-0.131893 

> <ConfScorePBest>
0.00609651 

> <ConfTolerance>
0.437248 

> <RosettaParamsInstructions>
M  ROOT 3
M  POLY_N_BB 3
M  POLY_CA_BB 4
M  POLY_C_BB 2
M  POLY_O_BB 5
M  POLY_IGNORE 9 10 11 12 13 14 15 16 17 18 
M  POLY_UPPER 6
M  POLY_LOWER 8
M  POLY_CHG 0
M  POLY_PROPERTIES ALPHA_AA L_AA PROTEIN AROMATIC POLYMER 
M  END

$$$$



 34 34  0  0  0  0  0  0  0  0999 V2000
   -2.1745    2.3427    2.8256 H   0  0  0  1  0  0  0  0  0  0  0  0
   -1.1428    0.6092    2.2701 C   0  0  0  1  0  0  0  0  0  0  0  0
   -0.1950    2.7654    3.0985 N   0  0  0  1  0  0  0  0  0  0  0  0
   -1.2522    2.1289    2.3271 C   0  0  0  1  0  0  0  0  0  0  0  0
   -2.0895   -0.0789    1.9475 O   0  0  0  1  0  0  0  0  0  0  0  0
    0.0763    0.0889    2.6028 N   0  0  0  1  0  0  0  0  0  0  0  0
    0.2106    3.5768    2.7278 H   0  0  0  1  0  0  0  0  0  0  0  0
    0.2681    2.3232    4.2839 C   0  0  0  1  0  0  0  0  0  0  0  0
    0.3107   -1.3444    2.6956 C   0  0  0  1  0  0  0  0  0  0  0  0
    1.4647    3.0992    4.7986 C   0  0  0  1  0  0  0  0  0  0  0  0
   -0.2097    1.3838    4.9146 O   0  0  0  1  0  0  0  0  0  0  0  0
    0.8186    0.7022    2.7851 H   0  0  0  1  0  0  0  0  0  0  0  0
    1.0671   -1.5360    3.4277 H   0  0  0  1  0  0  0  0  0  0  0  0
    0.6327   -1.7152    1.7450 H   0  0  0  1  0  0  0  0  0  0  0  0
   -0.5955   -1.8359    2.9823 H   0  0  0  1  0  0  0  0  0  0  0  0
    1.2186    3.5560    5.7344 H   0  0  0  1  0  0  0  0  0  0  0  0
    1.7294    3.8568    4.0909 H   0  0  0  1  0  0  0  0  0  0  0  0
    2.2906    2.4325    4.9338 H   0  0  0  1  0  0  0  0  0  0  0  0
   -1.3706    2.7484    0.9311 C   0  0  0  1  0  0  0  0  0  0  0  0
   -1.9308    4.1454    0.9515 C   0  0  0  1  0  0  0  0  0  0  0  0
   -1.0837    5.2345    0.8172 C   0  0  0  1  0  0  0  0  0  0  0  0
   -1.5981    6.5171    0.8415 C   0  0  0  1  0  0  0  0  0  0  0  0
   -2.9616    6.7143    0.9947 C   0  0  0  1  0  0  0  0  0  0  0  0
   -3.8060    5.6285    1.1286 C   0  0  0  1  0  0  0  0  0  0  0  0
   -3.2903    4.3420    1.1043 C   0  0  0  1  0  0  0  0  0  0  0  0
   -3.4424    7.9814    1.0100 O   0  0  0  1  0  0  0  0  0  0  0  0
   -0.8099    7.6127    0.7192 O   0  0  0  1  0  0  0  0  0  0  0  0
   -2.0140    2.1321    0.3385 H   0  0  0  1  0  0  0  0  0  0  0  0
   -0.3971    2.7783    0.4881 H   0  0  0  1  0  0  0  0  0  0  0  0
   -0.0611    5.0864    0.6982 H   0  0  0  1  0  0  0  0  0  0  0  0
   -4.8285    5.7766    1.2476 H   0  0  0  1  0  0  0  0  0  0  0  0
   -3.9263    3.5249    1.2011 H   0  0  0  1  0  0  0  0  0  0  0  0
   -3.4614    8.3278    0.1149 H   0  0  0  1  0  0  0  0  0  0  0  0
    0.0914    7.3399    0.5323 H   0  0  0  1  0  0  0  0  0  0  0  0
  1  4  1  0  0  0  0
  2  4  1  0  0  0  0
  2  5  2  0  0  0  0
  2  6  1  0  0  0  0
  3  4  1  0  0  0  0
  3  7  1  0  0  0  0
  3  8  1  0  0  0  0
  4 19  1  0  0  0  0
  6  9  1  0  0  0  0
  6 12  1  0  0  0  0
  8 10  1  0  0  0  0
  8 11  2  0  0  0  0
  9 13  1  0  0  0  0
  9 14  1  0  0  0  0
  9 15  1  0  0  0  0
 10 16  1  0  0  0  0
 10 17  1  0  0  0  0
 10 18  1  0  0  0  0
 19 20  1  0  0  0  0
 19 28  1  0  0  0  0
 19 29  1  0  0  0  0
 20 21  4  0  0  0  0
 20 25  4  0  0  0  0
 21 22  4  0  0  0  0
 21 30  1  0  0  0  0
 22 23  4  0  0  0  0
 22 27  1  0  0  0  0
 23 24  4  0  0  0  0
 23 26  1  0  0  0  0
 24 25  4  0  0  0  0
 24 31  1  0  0  0  0
 25 32  1  0  0  0  0
 26 33  1  0  0  0  0
 27 34  1  0  0  0  0
M  END
> <BCLConfClusterSize>
1

> <ConfClashScore>
0 

> <ConfOneFourInteractionScore>
-0.960318 

> <ConfScore>
-0.128928 

> <ConfScorePBest>
0.00606803 

> <ConfTolerance>
0.449421 

> <RosettaParamsInstructions>
M  ROOT 3
M  POLY_N_BB 3
M  POLY_CA_BB 4
M  POLY_C_BB 2
M  POLY_O_BB 5
M  POLY_IGNORE 9 10 11 12 13 14 15 16 17 18 
M  POLY_UPPER 6
M  POLY_LOWER 8
M  POLY_CHG 0
M  POLY_PROPERTIES ALPHA_AA L_AA PROTEIN AROMATIC POLYMER 
M  END

$$$$



 34 34  0  0  0  0  0  0  0  0999 V2000
    0.4935    3.4584    1.7971 H   0  0  0  1  0  0  0  0  0  0  0  0
    0.7575    1.3904    1.7956 C   0  0  0  1  0  0  0  0  0  0  0  0
    0.5993    2.9125   -0.1723 N   0  0  0  1  0  0  0  0  0  0  0  0
    0.1258    2.6494    1.2010 C   0  0  0  1  0  0  0  0  0  0  0  0
    0.8915    1.2787    3.0135 O   0  0  0  1  0  0  0  0  0  0  0  0
    1.2306    0.4774    0.9327 N   0  0  0  1  0  0  0  0  0  0  0  0
   -0.0458    2.9850   -0.9065 H   0  0  0  1  0  0  0  0  0  0  0  0
    1.9055    3.0519   -0.4164 C   0  0  0  1  0  0  0  0  0  0  0  0
    1.9820   -0.6904    1.3704 C   0  0  0  1  0  0  0  0  0  0  0  0
    2.2757    3.3900   -1.8474 C   0  0  0  1  0  0  0  0  0  0  0  0
    2.7656    2.9186    0.4500 O   0  0  0  1  0  0  0  0  0  0  0  0
    1.0645    0.6012   -0.0251 H   0  0  0  1  0  0  0  0  0  0  0  0
    1.3453   -1.3299    1.9452 H   0  0  0  1  0  0  0  0  0  0  0  0
    2.8094   -0.3769    1.9721 H   0  0  0  1  0  0  0  0  0  0  0  0
    2.3436   -1.2226    0.5154 H   0  0  0  1  0  0  0  0  0  0  0  0
    1.8287    4.3227   -2.1212 H   0  0  0  1  0  0  0  0  0  0  0  0
    1.9202    2.6194   -2.4991 H   0  0  0  1  0  0  0  0  0  0  0  0
    3.3397    3.4664   -1.9317 H   0  0  0  1  0  0  0  0  0  0  0  0
   -1.3911    2.7290    1.3124 C   0  0  0  1  0  0  0  0  0  0  0  0
   -1.9288    4.1130    1.0640 C   0  0  0  1  0  0  0  0  0  0  0  0
   -1.0598    5.1524    0.7708 C   0  0  0  1  0  0  0  0  0  0  0  0
   -1.5538    6.4239    0.5481 C   0  0  0  1  0  0  0  0  0  0  0  0
   -2.9184    6.6587    0.6127 C   0  0  0  1  0  0  0  0  0  0  0  0
   -3.7846    5.6222    0.9051 C   0  0  0  1  0  0  0  0  0  0  0  0
   -3.2894    4.3469    1.1285 C   0  0  0  1  0  0  0  0  0  0  0  0
   -3.3787    7.9129    0.3854 O   0  0  0  1  0  0  0  0  0  0  0  0
   -0.6453    7.3910    0.2721 O   0  0  0  1  0  0  0  0  0  0  0  0
   -1.6767    2.4244    2.2975 H   0  0  0  1  0  0  0  0  0  0  0  0
   -1.8208    2.0627    0.5938 H   0  0  0  1  0  0  0  0  0  0  0  0
   -0.0363    4.9755    0.7183 H   0  0  0  1  0  0  0  0  0  0  0  0
   -4.8081    5.7991    0.9576 H   0  0  0  1  0  0  0  0  0  0  0  0
   -3.9417    3.5662    1.3445 H   0  0  0  1  0  0  0  0  0  0  0  0
   -3.3200    8.4273    1.1938 H   0  0  0  1  0  0  0  0  0  0  0  0
   -0.4231    7.8616    1.0789 H   0  0  0  1  0  0  0  0  0  0  0  0
  1  4  1  0  0  0  0
  2  4  1  0  0  0  0
  2  5  2  0  0  0  0
  2  6  1  0  0  0  0
  3  4  1  0  0  0  0
  3  7  1  0  0  0  0
  3  8  1  0  0  0  0
  4 19  1  0  0  0  0
  6  9  1  0  0  0  0
  6 12  1  0  0  0  0
  8 10  1  0  0  0  0
  8 11  2  0  0  0  0
  9 13  1  0  0  0  0
  9 14  1  0  0  0  0
  9 15  1  0  0  0  0
 10 16  1  0  0  0  0
 10 17  1  0  0  0  0
 10 18  1  0  0  0  0
 19 20  1  0  0  0  0
 19 28  1  0  0  0  0
 19 29  1  0  0  0  0
 20 21  4  0  0  0  0
 20 25  4  0  0  0  0
 21 22  4  0  0  0  0
 21 30  1  0  0  0  0
 22 23  4  0  0  0  0
 22 27  1  0  0  0  0
 23 24  4  0  0  0  0
 23 26  1  0  0  0  0
 24 25  4  0  0  0  0
 24 31  1  0  0  0  0
 25 32  1  0  0  0  0
 26 33  1  0  0  0  0
 27 34  1  0  0  0  0
M  END
> <BCLConfClusterSize>
1

> <ConfClashScore>
0 

> <ConfOneFourInteractionScore>
-0.949001 

> <ConfScore>
-0.125676 

> <ConfScorePBest>
0.00603955 

> <ConfTolerance>
0.274542 

> <RosettaParamsInstructions>
M  ROOT 3
M  POLY_N_BB 3
M  POLY_CA_BB 4
M  POLY_C_BB 2
M  POLY_O_BB 5
M  POLY_IGNORE 9 10 11 12 13 14 15 16 17 18 
M  POLY_UPPER 6
M  POLY_LOWER 8
M  POLY_CHG 0
M  POLY_PROPERTIES ALPHA_AA L_AA PROTEIN AROMATIC POLYMER 
M  END

$$$$



 34 34  0  0  0  0  0  0  0  0999 V2000
   -2.7195    1.4119    0.2650 H   0  0  0  1  0  0  0  0  0  0  0  0
   -1.3513    2.1858   -1.1540 C   0  0  0  1  0  0  0  0  0  0  0  0
   -0.9176    0.4277    0.4837 N   0  0  0  1  0  0  0  0  0  0  0  0
   -1.6748    1.6407    0.2340 C   0  0  0  1  0  0  0  0  0  0  0  0
   -2.2303    2.6525   -1.8774 O   0  0  0  1  0  0  0  0  0  0  0  0
   -0.0677    2.1201   -1.5187 N   0  0  0  1  0  0  0  0  0  0  0  0
   -0.3407    0.3847    1.2747 H   0  0  0  1  0  0  0  0  0  0  0  0
   -0.9804   -0.6425   -0.3355 C   0  0  0  1  0  0  0  0  0  0  0  0
    0.3997    2.6055   -2.8086 C   0  0  0  1  0  0  0  0  0  0  0  0
   -0.1787   -1.8695    0.0356 C   0  0  0  1  0  0  0  0  0  0  0  0
   -1.6677   -0.6231   -1.3531 O   0  0  0  1  0  0  0  0  0  0  0  0
    0.5816    1.7315   -0.8960 H   0  0  0  1  0  0  0  0  0  0  0  0
    0.0020    1.9892   -3.5876 H   0  0  0  1  0  0  0  0  0  0  0  0
    1.4688    2.5699   -2.8367 H   0  0  0  1  0  0  0  0  0  0  0  0
    0.0721    3.6143   -2.9498 H   0  0  0  1  0  0  0  0  0  0  0  0
    0.8248   -1.5827    0.2714 H   0  0  0  1  0  0  0  0  0  0  0  0
   -0.1700   -2.5522   -0.7883 H   0  0  0  1  0  0  0  0  0  0  0  0
   -0.6236   -2.3421    0.8863 H   0  0  0  1  0  0  0  0  0  0  0  0
   -1.3911    2.6809    1.2920 C   0  0  0  1  0  0  0  0  0  0  0  0
   -1.9494    4.0624    1.0774 C   0  0  0  1  0  0  0  0  0  0  0  0
   -1.0516    5.0982    0.8712 C   0  0  0  1  0  0  0  0  0  0  0  0
   -1.5152    6.3854    0.6748 C   0  0  0  1  0  0  0  0  0  0  0  0
   -2.8778    6.6397    0.6787 C   0  0  0  1  0  0  0  0  0  0  0  0
   -3.7728    5.6068    0.8843 C   0  0  0  1  0  0  0  0  0  0  0  0
   -3.3081    4.3157    1.0813 C   0  0  0  1  0  0  0  0  0  0  0  0
   -3.2588    7.9242    0.4744 O   0  0  0  1  0  0  0  0  0  0  0  0
   -0.5799    7.3477    0.4850 O   0  0  0  1  0  0  0  0  0  0  0  0
   -0.3282    2.7741    1.3726 H   0  0  0  1  0  0  0  0  0  0  0  0
   -1.7886    2.3149    2.2155 H   0  0  0  1  0  0  0  0  0  0  0  0
   -0.0294    4.9069    0.8643 H   0  0  0  1  0  0  0  0  0  0  0  0
   -4.7950    5.7982    0.8912 H   0  0  0  1  0  0  0  0  0  0  0  0
   -3.9818    3.5379    1.2320 H   0  0  0  1  0  0  0  0  0  0  0  0
   -2.9800    8.4632    1.2182 H   0  0  0  1  0  0  0  0  0  0  0  0
   -0.9885    8.2124    0.5674 H   0  0  0  1  0  0  0  0  0  0  0  0
  1  4  1  0  0  0  0
  2  4  1  0  0  0  0
  2  5  2  0  0  0  0
  2  6  1  0  0  0  0
  3  4  1  0  0  0  0
  3  7  1  0  0  0  0
  3  8  1  0  0  0  0
  4 19  1  0  0  0  0
  6  9  1  0  0  0  0
  6 12  1  0  0  0  0
  8 10  1  0  0  0  0
  8 11  2  0  0  0  0
  9 13  1  0  0  0  0
  9 14  1  0  0  0  0
  9 15  1  0  0  0  0
 10 16  1  0  0  0  0
 10 17  1  0  0  0  0
 10 18  1  0  0  0  0
 19 20  1  0  0  0  0
 19 28  1  0  0  0  0
 19 29  1  0  0  0  0
 20 21  4  0  0  0  0
 20 25  4  0  0  0  0
 21 22  4  0  0  0  0
 21 30  1  0  0  0  0
 22 23  4  0  0  0  0
 22 27  1  0  0  0  0
 23 24  4  0  0  0  0
 23 26  1  0  0  0  0
 24 25  4  0  0  0  0
 24 31  1  0  0  0  0
 25 32  1  0  0  0  0
 26 33  1  0  0  0  0
 27 34  1  0  0  0  0
M  END
> <BCLConfClusterSize>
1

> <ConfClashScore>
0 

> <ConfOneFourInteractionScore>
-0.960318 

> <ConfScore>
-0.121809 

> <ConfScorePBest>
0.00601107 

> <ConfTolerance>
0.395276 

> <RosettaParamsInstructions>
M  ROOT 3
M  POLY_N_BB 3
M  POLY_CA_BB 4
M  POLY_C_BB 2
M  POLY_O_BB 5
M  POLY_IGNORE 9 10 11 12 13 14 15 16 17 18 
M  POLY_UPPER 6
M  POLY_LOWER 8
M  POLY_CHG 0
M  POLY_PROPERTIES ALPHA_AA L_AA PROTEIN AROMATIC POLYMER 
M  END

$$$$



 34 34  0  0  0  0  0  0  0  0999 V2000
    0.6104    3.2069    1.1732 H   0  0  0  1  0  0  0  0  0  0  0  0
    0.5441    1.1450    0.6649 C   0  0  0  1  0  0  0  0  0  0  0  0
    0.2350    3.0436   -0.8544 N   0  0  0  1  0  0  0  0  0  0  0  0
    0.0409    2.5862    0.5134 C   0  0  0  1  0  0  0  0  0  0  0  0
    1.1158    0.8011    1.6980 O   0  0  0  1  0  0  0  0  0  0  0  0
    0.2518    0.2980   -0.3261 N   0  0  0  1  0  0  0  0  0  0  0  0
   -0.5050    3.4951   -1.3116 H   0  0  0  1  0  0  0  0  0  0  0  0
    1.3982    2.8679   -1.5150 C   0  0  0  1  0  0  0  0  0  0  0  0
    0.6085   -1.1120   -0.2742 C   0  0  0  1  0  0  0  0  0  0  0  0
    1.4716    3.3166   -2.9569 C   0  0  0  1  0  0  0  0  0  0  0  0
    2.3719    2.3577   -0.9625 O   0  0  0  1  0  0  0  0  0  0  0  0
   -0.2191    0.6379   -1.1154 H   0  0  0  1  0  0  0  0  0  0  0  0
    1.0818   -1.3265    0.6612 H   0  0  0  1  0  0  0  0  0  0  0  0
    1.2814   -1.3391   -1.0745 H   0  0  0  1  0  0  0  0  0  0  0  0
   -0.2755   -1.7070   -0.3710 H   0  0  0  1  0  0  0  0  0  0  0  0
    0.7971    4.1327   -3.1118 H   0  0  0  1  0  0  0  0  0  0  0  0
    1.2004    2.5036   -3.5975 H   0  0  0  1  0  0  0  0  0  0  0  0
    2.4692    3.6312   -3.1819 H   0  0  0  1  0  0  0  0  0  0  0  0
   -1.4325    2.6873    0.9200 C   0  0  0  1  0  0  0  0  0  0  0  0
   -1.9358    4.1053    0.9652 C   0  0  0  1  0  0  0  0  0  0  0  0
   -1.0398    5.1614    0.9078 C   0  0  0  1  0  0  0  0  0  0  0  0
   -1.5022    6.4631    0.9547 C   0  0  0  1  0  0  0  0  0  0  0  0
   -2.8622    6.7125    1.0538 C   0  0  0  1  0  0  0  0  0  0  0  0
   -3.7554    5.6593    1.1111 C   0  0  0  1  0  0  0  0  0  0  0  0
   -3.2918    4.3538    1.0640 C   0  0  0  1  0  0  0  0  0  0  0  0
   -3.3635    7.9708    1.0979 O   0  0  0  1  0  0  0  0  0  0  0  0
   -0.5686    7.4439    0.8993 O   0  0  0  1  0  0  0  0  0  0  0  0
   -1.5483    2.2537    1.8914 H   0  0  0  1  0  0  0  0  0  0  0  0
   -2.0195    2.1400    0.2123 H   0  0  0  1  0  0  0  0  0  0  0  0
   -0.0198    4.9744    0.8294 H   0  0  0  1  0  0  0  0  0  0  0  0
   -4.7754    5.8464    1.1895 H   0  0  0  1  0  0  0  0  0  0  0  0
   -3.9643    3.5614    1.1031 H   0  0  0  1  0  0  0  0  0  0  0  0
   -3.4944    8.2951    0.2038 H   0  0  0  1  0  0  0  0  0  0  0  0
   -0.4736    7.7449   -0.0074 H   0  0  0  1  0  0  0  0  0  0  0  0
  1  4  1  0  0  0  0
  2  4  1  0  0  0  0
  2  5  2  0  0  0  0
  2  6  1  0  0  0  0
  3  4  1  0  0  0  0
  3  7  1  0  0  0  0
  3  8  1  0  0  0  0
  4 19  1  0  0  0  0
  6  9  1  0  0  0  0
  6 12  1  0  0  0  0
  8 10  1  0  0  0  0
  8 11  2  0  0  0  0
  9 13  1  0  0  0  0
  9 14  1  0  0  0  0
  9 15  1  0  0  0  0
 10 16  1  0  0  0  0
 10 17  1  0  0  0  0
 10 18  1  0  0  0  0
 19 20  1  0  0  0  0
 19 28  1  0  0  0  0
 19 29  1  0  0  0  0
 20 21  4  0  0  0  0
 20 25  4  0  0  0  0
 21 22  4  0  0  0  0
 21 30  1  0  0  0  0
 22 23  4  0  0  0  0
 22 27  1  0  0  0  0
 23 24  4  0  0  0  0
 23 26  1  0  0  0  0
 24 25  4  0  0  0  0
 24 31  1  0  0  0  0
 25 32  1  0  0  0  0
 26 33  1  0  0  0  0
 27 34  1  0  0  0  0
M  END
> <BCLConfClusterSize>
1

> <ConfClashScore>
0 

> <ConfOneFourInteractionScore>
-0.949001 

> <ConfScore>
-0.116071 

> <ConfScorePBest>
0.00598259 

> <ConfTolerance>
0.408331 

> <RosettaParamsInstructions>
M  ROOT 3
M  POLY_N_BB 3
M  POLY_CA_BB 4
M  POLY_C_BB 2
M  POLY_O_BB 5
M  POLY_IGNORE 9 10 11 12 13 14 15 16 17 18 
M  POLY_UPPER 6
M  POLY_LOWER 8
M  POLY_CHG 0
M  POLY_PROPERTIES ALPHA_AA L_AA PROTEIN AROMATIC POLYMER 
M  END

$$$$



 34 34  0  0  0  0  0  0  0  0999 V2000
   -1.6926    2.5983    3.1388 H   0  0  0  1  0  0  0  0  0  0  0  0
   -0.8360    0.7434    2.6279 C   0  0  0  1  0  0  0  0  0  0  0  0
    0.2984    2.8788    2.6900 N   0  0  0  1  0  0  0  0  0  0  0  0
   -0.9825    2.2419    2.4222 C   0  0  0  1  0  0  0  0  0  0  0  0
    0.2369    0.1794    2.4172 O   0  0  0  1  0  0  0  0  0  0  0  0
   -1.9106    0.0557    3.0456 N   0  0  0  1  0  0  0  0  0  0  0  0
    0.9569    2.8947    1.9644 H   0  0  0  1  0  0  0  0  0  0  0  0
    0.6474    3.4491    3.8618 C   0  0  0  1  0  0  0  0  0  0  0  0
   -1.8300   -1.3858    3.2281 C   0  0  0  1  0  0  0  0  0  0  0  0
    1.9813    4.1664    3.9362 C   0  0  0  1  0  0  0  0  0  0  0  0
   -0.0917    3.3903    4.8410 O   0  0  0  1  0  0  0  0  0  0  0  0
   -2.7511    0.5254    3.2280 H   0  0  0  1  0  0  0  0  0  0  0  0
   -2.7700   -1.8308    2.9766 H   0  0  0  1  0  0  0  0  0  0  0  0
   -1.5946   -1.6032    4.2490 H   0  0  0  1  0  0  0  0  0  0  0  0
   -1.0662   -1.7834    2.5930 H   0  0  0  1  0  0  0  0  0  0  0  0
    2.1104    4.5798    4.9146 H   0  0  0  1  0  0  0  0  0  0  0  0
    2.0039    4.9529    3.2111 H   0  0  0  1  0  0  0  0  0  0  0  0
    2.7707    3.4726    3.7353 H   0  0  0  1  0  0  0  0  0  0  0  0
   -1.5058    2.6149    1.0332 C   0  0  0  1  0  0  0  0  0  0  0  0
   -1.9455    4.0638    0.9962 C   0  0  0  1  0  0  0  0  0  0  0  0
   -1.0060    5.0698    0.8324 C   0  0  0  1  0  0  0  0  0  0  0  0
   -1.4075    6.3921    0.8041 C   0  0  0  1  0  0  0  0  0  0  0  0
   -2.7500    6.7119    0.9342 C   0  0  0  1  0  0  0  0  0  0  0  0
   -3.6865    5.7088    1.0976 C   0  0  0  1  0  0  0  0  0  0  0  0
   -3.2841    4.3826    1.1259 C   0  0  0  1  0  0  0  0  0  0  0  0
   -3.1923    7.9927    0.9075 O   0  0  0  1  0  0  0  0  0  0  0  0
   -0.4338    7.3213    0.6461 O   0  0  0  1  0  0  0  0  0  0  0  0
   -2.3396    1.9889    0.7927 H   0  0  0  1  0  0  0  0  0  0  0  0
   -0.7281    2.4658    0.3136 H   0  0  0  1  0  0  0  0  0  0  0  0
    0.0007    4.8297    0.7307 H   0  0  0  1  0  0  0  0  0  0  0  0
   -4.6933    5.9489    1.1992 H   0  0  0  1  0  0  0  0  0  0  0  0
   -3.9894    3.6275    1.2449 H   0  0  0  1  0  0  0  0  0  0  0  0
   -3.7567    8.1209    0.1416 H   0  0  0  1  0  0  0  0  0  0  0  0
   -0.8291    8.1949    0.5988 H   0  0  0  1  0  0  0  0  0  0  0  0
  1  4  1  0  0  0  0
  2  4  1  0  0  0  0
  2  5  2  0  0  0  0
  2  6  1  0  0  0  0
  3  4  1  0  0  0  0
  3  7  1  0  0  0  0
  3  8  1  0  0  0  0
  4 19  1  0  0  0  0
  6  9  1  0  0  0  0
  6 12  1  0  0  0  0
  8 10  1  0  0  0  0
  8 11  2  0  0  0  0
  9 13  1  0  0  0  0
  9 14  1  0  0  0  0
  9 15  1  0  0  0  0
 10 16  1  0  0  0  0
 10 17  1  0  0  0  0
 10 18  1  0  0  0  0
 19 20  1  0  0  0  0
 19 28  1  0  0  0  0
 19 29  1  0  0  0  0
 20 21  4  0  0  0  0
 20 25  4  0  0  0  0
 21 22  4  0  0  0  0
 21 30  1  0  0  0  0
 22 23  4  0  0  0  0
 22 27  1  0  0  0  0
 23 24  4  0  0  0  0
 23 26  1  0  0  0  0
 24 25  4  0  0  0  0
 24 31  1  0  0  0  0
 25 32  1  0  0  0  0
 26 33  1  0  0  0  0
 27 34  1  0  0  0  0
M  END
> <BCLConfClusterSize>
1

> <ConfClashScore>
0 

> <ConfOneFourInteractionScore>
-0.981931 

> <ConfScore>
-0.114457 

> <ConfScorePBest>
0.00595411 

> <ConfTolerance>
0.351543 

> <RosettaParamsInstructions>
M  ROOT 3
M  POLY_N_BB 3
M  POLY_CA_BB 4
M  POLY_C_BB 2
M  POLY_O_BB 5
M  POLY_IGNORE 9 10 11 12 13 14 15 16 17 18 
M  POLY_UPPER 6
M  POLY_LOWER 8
M  POLY_CHG 0
M  POLY_PROPERTIES ALPHA_AA L_AA PROTEIN AROMATIC POLYMER 
M  END

$$$$



 34 34  0  0  0  0  0  0  0  0999 V2000
   -2.9454    2.0517    2.5462 H   0  0  0  1  0  0  0  0  0  0  0  0
   -1.4831    0.5399    2.5083 C   0  0  0  1  0  0  0  0  0  0  0  0
   -1.3102    2.7708    3.5674 N   0  0  0  1  0  0  0  0  0  0  0  0
   -1.8792    2.0064    2.4675 C   0  0  0  1  0  0  0  0  0  0  0  0
   -0.4198    0.2065    3.0299 O   0  0  0  1  0  0  0  0  0  0  0  0
   -2.3749   -0.3387    2.0370 N   0  0  0  1  0  0  0  0  0  0  0  0
   -0.3460    2.9385    3.6189 H   0  0  0  1  0  0  0  0  0  0  0  0
   -2.1478    3.2421    4.5143 C   0  0  0  1  0  0  0  0  0  0  0  0
   -2.1201   -1.7714    2.0194 C   0  0  0  1  0  0  0  0  0  0  0  0
   -1.5635    4.0988    5.6206 C   0  0  0  1  0  0  0  0  0  0  0  0
   -3.3507    2.9858    4.4833 O   0  0  0  1  0  0  0  0  0  0  0  0
   -3.2295   -0.0061    1.6916 H   0  0  0  1  0  0  0  0  0  0  0  0
   -1.9234   -2.1115    3.0147 H   0  0  0  1  0  0  0  0  0  0  0  0
   -1.2723   -1.9750    1.3991 H   0  0  0  1  0  0  0  0  0  0  0  0
   -2.9771   -2.2811    1.6314 H   0  0  0  1  0  0  0  0  0  0  0  0
   -0.7781    4.7076    5.2238 H   0  0  0  1  0  0  0  0  0  0  0  0
   -1.1710    3.4677    6.3904 H   0  0  0  1  0  0  0  0  0  0  0  0
   -2.3290    4.7255    6.0282 H   0  0  0  1  0  0  0  0  0  0  0  0
   -1.4953    2.6471    1.1301 C   0  0  0  1  0  0  0  0  0  0  0  0
   -1.9395    4.0807    1.0140 C   0  0  0  1  0  0  0  0  0  0  0  0
   -1.0103    5.0759    0.7539 C   0  0  0  1  0  0  0  0  0  0  0  0
   -1.4181    6.3926    0.6527 C   0  0  0  1  0  0  0  0  0  0  0  0
   -2.7570    6.7174    0.8059 C   0  0  0  1  0  0  0  0  0  0  0  0
   -3.6833    5.7250    1.0653 C   0  0  0  1  0  0  0  0  0  0  0  0
   -3.2745    4.4044    1.1668 C   0  0  0  1  0  0  0  0  0  0  0  0
   -3.1328    8.0149    0.6970 O   0  0  0  1  0  0  0  0  0  0  0  0
   -0.4901    7.3482    0.4031 O   0  0  0  1  0  0  0  0  0  0  0  0
   -1.9487    2.0851    0.3406 H   0  0  0  1  0  0  0  0  0  0  0  0
   -0.4307    2.6112    1.0284 H   0  0  0  1  0  0  0  0  0  0  0  0
   -0.0063    4.8319    0.6349 H   0  0  0  1  0  0  0  0  0  0  0  0
   -4.6872    5.9692    1.1842 H   0  0  0  1  0  0  0  0  0  0  0  0
   -3.9722    3.6572    1.3580 H   0  0  0  1  0  0  0  0  0  0  0  0
   -4.0372    8.0610    0.3783 H   0  0  0  1  0  0  0  0  0  0  0  0
   -0.5753    8.0540    1.0482 H   0  0  0  1  0  0  0  0  0  0  0  0
  1  4  1  0  0  0  0
  2  4  1  0  0  0  0
  2  5  2  0  0  0  0
  2  6  1  0  0  0  0
  3  4  1  0  0  0  0
  3  7  1  0  0  0  0
  3  8  1  0  0  0  0
  4 19  1  0  0  0  0
  6  9  1  0  0  0  0
  6 12  1  0  0  0  0
  8 10  1  0  0  0  0
  8 11  2  0  0  0  0
  9 13  1  0  0  0  0
  9 14  1  0  0  0  0
  9 15  1  0  0  0  0
 10 16  1  0  0  0  0
 10 17  1  0  0  0  0
 10 18  1  0  0  0  0
 19 20  1  0  0  0  0
 19 28  1  0  0  0  0
 19 29  1  0  0  0  0
 20 21  4  0  0  0  0
 20 25  4  0  0  0  0
 21 22  4  0  0  0  0
 21 30  1  0  0  0  0
 22 23  4  0  0  0  0
 22 27  1  0  0  0  0
 23 24  4  0  0  0  0
 23 26  1  0  0  0  0
 24 25  4  0  0  0  0
 24 31  1  0  0  0  0
 25 32  1  0  0  0  0
 26 33  1  0  0  0  0
 27 34  1  0  0  0  0
M  END
> <BCLConfClusterSize>
1

> <ConfClashScore>
0 

> <ConfOneFourInteractionScore>
-0.985807 

> <ConfScore>
-0.111197 

> <ConfScorePBest>
0.00592562 

> <ConfTolerance>
0.293047 

> <RosettaParamsInstructions>
M  ROOT 3
M  POLY_N_BB 3
M  POLY_CA_BB 4
M  POLY_C_BB 2
M  POLY_O_BB 5
M  POLY_IGNORE 9 10 11 12 13 14 15 16 17 18 
M  POLY_UPPER 6
M  POLY_LOWER 8
M  POLY_CHG 0
M  POLY_PROPERTIES ALPHA_AA L_AA PROTEIN AROMATIC POLYMER 
M  END

$$$$



 34 34  0  0  0  0  0  0  0  0999 V2000
   -2.9434    2.2350    2.7788 H   0  0  0  1  0  0  0  0  0  0  0  0
   -1.6928    0.5400    2.6388 C   0  0  0  1  0  0  0  0  0  0  0  0
   -1.1696    2.6399    3.7754 N   0  0  0  1  0  0  0  0  0  0  0  0
   -1.8984    2.0422    2.6539 C   0  0  0  1  0  0  0  0  0  0  0  0
   -0.6551    0.0333    3.0632 O   0  0  0  1  0  0  0  0  0  0  0  0
   -2.7024   -0.1790    2.1401 N   0  0  0  1  0  0  0  0  0  0  0  0
   -0.1922    2.6945    3.7290 H   0  0  0  1  0  0  0  0  0  0  0  0
   -1.7938    3.1152    4.8638 C   0  0  0  1  0  0  0  0  0  0  0  0
   -2.6240   -1.6235    1.9811 C   0  0  0  1  0  0  0  0  0  0  0  0
   -0.9407    3.6037    6.0184 C   0  0  0  1  0  0  0  0  0  0  0  0
   -3.0214    3.1546    4.9258 O   0  0  0  1  0  0  0  0  0  0  0  0
   -3.5244    0.2824    1.8720 H   0  0  0  1  0  0  0  0  0  0  0  0
   -3.1178   -1.9106    1.0764 H   0  0  0  1  0  0  0  0  0  0  0  0
   -3.0991   -2.0999    2.8131 H   0  0  0  1  0  0  0  0  0  0  0  0
   -1.5974   -1.9219    1.9370 H   0  0  0  1  0  0  0  0  0  0  0  0
   -0.3352    4.4238    5.6931 H   0  0  0  1  0  0  0  0  0  0  0  0
   -0.3108    2.8081    6.3577 H   0  0  0  1  0  0  0  0  0  0  0  0
   -1.5742    3.9240    6.8190 H   0  0  0  1  0  0  0  0  0  0  0  0
   -1.4589    2.6558    1.3310 C   0  0  0  1  0  0  0  0  0  0  0  0
   -1.9367    4.0612    1.0812 C   0  0  0  1  0  0  0  0  0  0  0  0
   -1.0211    5.0696    0.8230 C   0  0  0  1  0  0  0  0  0  0  0  0
   -1.4603    6.3608    0.5991 C   0  0  0  1  0  0  0  0  0  0  0  0
   -2.8164    6.6465    0.6274 C   0  0  0  1  0  0  0  0  0  0  0  0
   -3.7291    5.6411    0.8849 C   0  0  0  1  0  0  0  0  0  0  0  0
   -3.2889    4.3460    1.1095 C   0  0  0  1  0  0  0  0  0  0  0  0
   -3.2224    7.9193    0.3996 O   0  0  0  1  0  0  0  0  0  0  0  0
   -0.6405    7.4095    0.3445 O   0  0  0  1  0  0  0  0  0  0  0  0
   -1.8285    2.0362    0.5408 H   0  0  0  1  0  0  0  0  0  0  0  0
   -0.3891    2.6621    1.3093 H   0  0  0  1  0  0  0  0  0  0  0  0
   -0.0039    4.8544    0.7978 H   0  0  0  1  0  0  0  0  0  0  0  0
   -4.7463    5.8563    0.9101 H   0  0  0  1  0  0  0  0  0  0  0  0
   -3.9760    3.5888    1.2992 H   0  0  0  1  0  0  0  0  0  0  0  0
   -3.2528    8.3995    1.2302 H   0  0  0  1  0  0  0  0  0  0  0  0
   -0.9260    8.1708    0.8548 H   0  0  0  1  0  0  0  0  0  0  0  0
  1  4  1  0  0  0  0
  2  4  1  0  0  0  0
  2  5  2  0  0  0  0
  2  6  1  0  0  0  0
  3  4  1  0  0  0  0
  3  7  1  0  0  0  0
  3  8  1  0  0  0  0
  4 19  1  0  0  0  0
  6  9  1  0  0  0  0
  6 12  1  0  0  0  0
  8 10  1  0  0  0  0
  8 11  2  0  0  0  0
  9 13  1  0  0  0  0
  9 14  1  0  0  0  0
  9 15  1  0  0  0  0
 10 16  1  0  0  0  0
 10 17  1  0  0  0  0
 10 18  1  0  0  0  0
 19 20  1  0  0  0  0
 19 28  1  0  0  0  0
 19 29  1  0  0  0  0
 20 21  4  0  0  0  0
 20 25  4  0  0  0  0
 21 22  4  0  0  0  0
 21 30  1  0  0  0  0
 22 23  4  0  0  0  0
 22 27  1  0  0  0  0
 23 24  4  0  0  0  0
 23 26  1  0  0  0  0
 24 25  4  0  0  0  0
 24 31  1  0  0  0  0
 25 32  1  0  0  0  0
 26 33  1  0  0  0  0
 27 34  1  0  0  0  0
M  END
> <BCLConfClusterSize>
1

> <ConfClashScore>
0 

> <ConfOneFourInteractionScore>
-0.985807 

> <ConfScore>
-0.110727 

> <ConfScorePBest>
0.00589714 

> <ConfTolerance>
0.348192 

> <RosettaParamsInstructions>
M  ROOT 3
M  POLY_N_BB 3
M  POLY_CA_BB 4
M  POLY_C_BB 2
M  POLY_O_BB 5
M  POLY_IGNORE 9 10 11 12 13 14 15 16 17 18 
M  POLY_UPPER 6
M  POLY_LOWER 8
M  POLY_CHG 0
M  POLY_PROPERTIES ALPHA_AA L_AA PROTEIN AROMATIC POLYMER 
M  END

$$$$



 34 34  0  0  0  0  0  0  0  0999 V2000
   -2.4990    2.2894    3.0831 H   0  0  0  1  0  0  0  0  0  0  0  0
   -1.0389    0.7868    2.8299 C   0  0  0  1  0  0  0  0  0  0  0  0
   -0.6486    3.0798    3.5524 N   0  0  0  1  0  0  0  0  0  0  0  0
   -1.4918    2.2302    2.7269 C   0  0  0  1  0  0  0  0  0  0  0  0
    0.1470    0.4994    2.9877 O   0  0  0  1  0  0  0  0  0  0  0  0
   -2.0088   -0.1368    2.7380 N   0  0  0  1  0  0  0  0  0  0  0  0
   -0.1293    3.8016    3.1404 H   0  0  0  1  0  0  0  0  0  0  0  0
   -0.5780    2.8721    4.9132 C   0  0  0  1  0  0  0  0  0  0  0  0
   -1.7265   -1.5644    2.7500 C   0  0  0  1  0  0  0  0  0  0  0  0
    0.1818    3.9031    5.6958 C   0  0  0  1  0  0  0  0  0  0  0  0
   -1.1131    1.8992    5.4103 O   0  0  0  1  0  0  0  0  0  0  0  0
   -2.9393    0.1607    2.6600 H   0  0  0  1  0  0  0  0  0  0  0  0
   -0.6928   -1.7222    2.9768 H   0  0  0  1  0  0  0  0  0  0  0  0
   -1.9479   -1.9796    1.7891 H   0  0  0  1  0  0  0  0  0  0  0  0
   -2.3312   -2.0410    3.4930 H   0  0  0  1  0  0  0  0  0  0  0  0
    1.1904    3.9487    5.3414 H   0  0  0  1  0  0  0  0  0  0  0  0
    0.1798    3.6367    6.7321 H   0  0  0  1  0  0  0  0  0  0  0  0
   -0.2831    4.8588    5.5717 H   0  0  0  1  0  0  0  0  0  0  0  0
   -1.4762    2.6936    1.2761 C   0  0  0  1  0  0  0  0  0  0  0  0
   -1.9192    4.1141    1.0477 C   0  0  0  1  0  0  0  0  0  0  0  0
   -1.0267    5.1303    0.7440 C   0  0  0  1  0  0  0  0  0  0  0  0
   -1.4872    6.4189    0.5492 C   0  0  0  1  0  0  0  0  0  0  0  0
   -2.8419    6.6940    0.6522 C   0  0  0  1  0  0  0  0  0  0  0  0
   -3.7316    5.6806    0.9551 C   0  0  0  1  0  0  0  0  0  0  0  0
   -3.2700    4.3882    1.1505 C   0  0  0  1  0  0  0  0  0  0  0  0
   -3.2208    7.9783    0.4432 O   0  0  0  1  0  0  0  0  0  0  0  0
   -0.6533    7.4461    0.2556 O   0  0  0  1  0  0  0  0  0  0  0  0
   -2.1249    2.0517    0.7175 H   0  0  0  1  0  0  0  0  0  0  0  0
   -0.4757    2.5969    0.9094 H   0  0  0  1  0  0  0  0  0  0  0  0
   -0.0108    4.9233    0.6627 H   0  0  0  1  0  0  0  0  0  0  0  0
   -4.7475    5.8877    1.0363 H   0  0  0  1  0  0  0  0  0  0  0  0
   -3.9400    3.6250    1.3745 H   0  0  0  1  0  0  0  0  0  0  0  0
   -3.8963    8.2209    1.0807 H   0  0  0  1  0  0  0  0  0  0  0  0
   -0.2576    7.7788    1.0645 H   0  0  0  1  0  0  0  0  0  0  0  0
  1  4  1  0  0  0  0
  2  4  1  0  0  0  0
  2  5  2  0  0  0  0
  2  6  1  0  0  0  0
  3  4  1  0  0  0  0
  3  7  1  0  0  0  0
  3  8  1  0  0  0  0
  4 19  1  0  0  0  0
  6  9  1  0  0  0  0
  6 12  1  0  0  0  0
  8 10  1  0  0  0  0
  8 11  2  0  0  0  0
  9 13  1  0  0  0  0
  9 14  1  0  0  0  0
  9 15  1  0  0  0  0
 10 16  1  0  0  0  0
 10 17  1  0  0  0  0
 10 18  1  0  0  0  0
 19 20  1  0  0  0  0
 19 28  1  0  0  0  0
 19 29  1  0  0  0  0
 20 21  4  0  0  0  0
 20 25  4  0  0  0  0
 21 22  4  0  0  0  0
 21 30  1  0  0  0  0
 22 23  4  0  0  0  0
 22 27  1  0  0  0  0
 23 24  4  0  0  0  0
 23 26  1  0  0  0  0
 24 25  4  0  0  0  0
 24 31  1  0  0  0  0
 25 32  1  0  0  0  0
 26 33  1  0  0  0  0
 27 34  1  0  0  0  0
M  END
> <BCLConfClusterSize>
1

> <ConfClashScore>
0 

> <ConfOneFourInteractionScore>
-0.985807 

> <ConfScore>
-0.109665 

> <ConfScorePBest>
0.00586866 

> <ConfTolerance>
0.366513 

> <RosettaParamsInstructions>
M  ROOT 3
M  POLY_N_BB 3
M  POLY_CA_BB 4
M  POLY_C_BB 2
M  POLY_O_BB 5
M  POLY_IGNORE 9 10 11 12 13 14 15 16 17 18 
M  POLY_UPPER 6
M  POLY_LOWER 8
M  POLY_CHG 0
M  POLY_PROPERTIES ALPHA_AA L_AA PROTEIN AROMATIC POLYMER 
M  END

$$$$



 34 34  0  0  0  0  0  0  0  0999 V2000
    0.3291    3.3321    2.2099 H   0  0  0  1  0  0  0  0  0  0  0  0
   -1.1063    3.0104    3.7260 C   0  0  0  1  0  0  0  0  0  0  0  0
    0.1384    1.2998    2.5188 N   0  0  0  1  0  0  0  0  0  0  0  0
   -0.4467    2.6240    2.4134 C   0  0  0  1  0  0  0  0  0  0  0  0
   -1.3055    4.1770    4.0225 O   0  0  0  1  0  0  0  0  0  0  0  0
   -1.4335    1.9600    4.4953 N   0  0  0  1  0  0  0  0  0  0  0  0
   -0.2808    0.5576    2.0352 H   0  0  0  1  0  0  0  0  0  0  0  0
    1.2632    1.0498    3.2753 C   0  0  0  1  0  0  0  0  0  0  0  0
   -2.0373    2.1174    5.8100 C   0  0  0  1  0  0  0  0  0  0  0  0
    1.8129   -0.3443    3.1929 C   0  0  0  1  0  0  0  0  0  0  0  0
    1.7512    1.9361    3.9571 O   0  0  0  1  0  0  0  0  0  0  0  0
   -1.2598    1.0558    4.1598 H   0  0  0  1  0  0  0  0  0  0  0  0
   -2.0628    3.1551    6.0694 H   0  0  0  1  0  0  0  0  0  0  0  0
   -1.4585    1.5831    6.5342 H   0  0  0  1  0  0  0  0  0  0  0  0
   -3.0344    1.7295    5.7930 H   0  0  0  1  0  0  0  0  0  0  0  0
    1.1657   -0.9485    2.5921 H   0  0  0  1  0  0  0  0  0  0  0  0
    1.8777   -0.7606    4.1765 H   0  0  0  1  0  0  0  0  0  0  0  0
    2.7872   -0.3177    2.7514 H   0  0  0  1  0  0  0  0  0  0  0  0
   -1.4539    2.6850    1.2690 C   0  0  0  1  0  0  0  0  0  0  0  0
   -1.9319    4.0960    1.0533 C   0  0  0  1  0  0  0  0  0  0  0  0
   -1.0220    5.0989    0.7571 C   0  0  0  1  0  0  0  0  0  0  0  0
   -1.4610    6.3953    0.5644 C   0  0  0  1  0  0  0  0  0  0  0  0
   -2.8116    6.6915    0.6622 C   0  0  0  1  0  0  0  0  0  0  0  0
   -3.7187    5.6915    0.9575 C   0  0  0  1  0  0  0  0  0  0  0  0
   -3.2786    4.3913    1.1507 C   0  0  0  1  0  0  0  0  0  0  0  0
   -3.1690    7.9824    0.4557 O   0  0  0  1  0  0  0  0  0  0  0  0
   -0.5516    7.3593    0.2811 O   0  0  0  1  0  0  0  0  0  0  0  0
   -2.2919    2.0630    1.5055 H   0  0  0  1  0  0  0  0  0  0  0  0
   -0.9885    2.3314    0.3727 H   0  0  0  1  0  0  0  0  0  0  0  0
   -0.0091    4.8760    0.6798 H   0  0  0  1  0  0  0  0  0  0  0  0
   -4.7316    5.9144    1.0348 H   0  0  0  1  0  0  0  0  0  0  0  0
   -3.9617    3.6380    1.3690 H   0  0  0  1  0  0  0  0  0  0  0  0
   -3.9071    8.2059    1.0275 H   0  0  0  1  0  0  0  0  0  0  0  0
   -0.4713    7.9542    1.0302 H   0  0  0  1  0  0  0  0  0  0  0  0
  1  4  1  0  0  0  0
  2  4  1  0  0  0  0
  2  5  2  0  0  0  0
  2  6  1  0  0  0  0
  3  4  1  0  0  0  0
  3  7  1  0  0  0  0
  3  8  1  0  0  0  0
  4 19  1  0  0  0  0
  6  9  1  0  0  0  0
  6 12  1  0  0  0  0
  8 10  1  0  0  0  0
  8 11  2  0  0  0  0
  9 13  1  0  0  0  0
  9 14  1  0  0  0  0
  9 15  1  0  0  0  0
 10 16  1  0  0  0  0
 10 17  1  0  0  0  0
 10 18  1  0  0  0  0
 19 20  1  0  0  0  0
 19 28  1  0  0  0  0
 19 29  1  0  0  0  0
 20 21  4  0  0  0  0
 20 25  4  0  0  0  0
 21 22  4  0  0  0  0
 21 30  1  0  0  0  0
 22 23  4  0  0  0  0
 22 27  1  0  0  0  0
 23 24  4  0  0  0  0
 23 26  1  0  0  0  0
 24 25  4  0  0  0  0
 24 31  1  0  0  0  0
 25 32  1  0  0  0  0
 26 33  1  0  0  0  0
 27 34  1  0  0  0  0
M  END
> <BCLConfClusterSize>
1

> <ConfClashScore>
0 

> <ConfOneFourInteractionScore>
-0.94165 

> <ConfScore>
-0.109086 

> <ConfScorePBest>
0.00584018 

> <ConfTolerance>
0.412463 

> <RosettaParamsInstructions>
M  ROOT 3
M  POLY_N_BB 3
M  POLY_CA_BB 4
M  POLY_C_BB 2
M  POLY_O_BB 5
M  POLY_IGNORE 9 10 11 12 13 14 15 16 17 18 
M  POLY_UPPER 6
M  POLY_LOWER 8
M  POLY_CHG 0
M  POLY_PROPERTIES ALPHA_AA L_AA PROTEIN AROMATIC POLYMER 
M  END

$$$$



 34 34  0  0  0  0  0  0  0  0999 V2000
   -1.2175    2.4350   -0.9129 H   0  0  0  1  0  0  0  0  0  0  0  0
   -0.5995    0.6463    0.0548 C   0  0  0  1  0  0  0  0  0  0  0  0
   -2.9026    1.4415   -0.2198 N   0  0  0  1  0  0  0  0  0  0  0  0
   -1.5181    1.8576   -0.0637 C   0  0  0  1  0  0  0  0  0  0  0  0
   -0.9504   -0.3639    0.6631 O   0  0  0  1  0  0  0  0  0  0  0  0
    0.5916    0.7608   -0.5394 N   0  0  0  1  0  0  0  0  0  0  0  0
   -3.5478    1.6727    0.4807 H   0  0  0  1  0  0  0  0  0  0  0  0
   -3.3257    0.7550   -1.2851 C   0  0  0  1  0  0  0  0  0  0  0  0
    1.5652   -0.3209   -0.5442 C   0  0  0  1  0  0  0  0  0  0  0  0
   -4.7725    0.2723   -1.2110 C   0  0  0  1  0  0  0  0  0  0  0  0
   -2.6054    0.4539   -2.2348 O   0  0  0  1  0  0  0  0  0  0  0  0
    0.8176    1.6025   -0.9877 H   0  0  0  1  0  0  0  0  0  0  0  0
    1.0561   -1.2593   -0.6150 H   0  0  0  1  0  0  0  0  0  0  0  0
    2.1347   -0.2918    0.3611 H   0  0  0  1  0  0  0  0  0  0  0  0
    2.2205   -0.2068   -1.3823 H   0  0  0  1  0  0  0  0  0  0  0  0
   -5.4188    1.0153   -1.6296 H   0  0  0  1  0  0  0  0  0  0  0  0
   -5.0397    0.1025   -0.1889 H   0  0  0  1  0  0  0  0  0  0  0  0
   -4.8729   -0.6390   -1.7626 H   0  0  0  1  0  0  0  0  0  0  0  0
   -1.3683    2.7185    1.1916 C   0  0  0  1  0  0  0  0  0  0  0  0
   -1.9277    4.1061    1.0252 C   0  0  0  1  0  0  0  0  0  0  0  0
   -1.0775    5.1706    0.7690 C   0  0  0  1  0  0  0  0  0  0  0  0
   -1.5914    6.4452    0.6216 C   0  0  0  1  0  0  0  0  0  0  0  0
   -2.9572    6.6583    0.7246 C   0  0  0  1  0  0  0  0  0  0  0  0
   -3.8047    5.5968    0.9800 C   0  0  0  1  0  0  0  0  0  0  0  0
   -3.2896    4.3184    1.1279 C   0  0  0  1  0  0  0  0  0  0  0  0
   -3.5877    7.8511    0.5965 O   0  0  0  1  0  0  0  0  0  0  0  0
   -0.7394    7.4704    0.3769 O   0  0  0  1  0  0  0  0  0  0  0  0
   -0.3279    2.7970    1.4287 H   0  0  0  1  0  0  0  0  0  0  0  0
   -1.8830    2.2382    1.9974 H   0  0  0  1  0  0  0  0  0  0  0  0
   -0.0532    5.0102    0.6877 H   0  0  0  1  0  0  0  0  0  0  0  0
   -4.8290    5.7573    1.0612 H   0  0  0  1  0  0  0  0  0  0  0  0
   -3.9278    3.5191    1.3161 H   0  0  0  1  0  0  0  0  0  0  0  0
   -2.9394    8.5590    0.6073 H   0  0  0  1  0  0  0  0  0  0  0  0
   -0.3864    7.7988    1.2070 H   0  0  0  1  0  0  0  0  0  0  0  0
  1  4  1  0  0  0  0
  2  4  1  0  0  0  0
  2  5  2  0  0  0  0
  2  6  1  0  0  0  0
  3  4  1  0  0  0  0
  3  7  1  0  0  0  0
  3  8  1  0  0  0  0
  4 19  1  0  0  0  0
  6  9  1  0  0  0  0
  6 12  1  0  0  0  0
  8 10  1  0  0  0  0
  8 11  2  0  0  0  0
  9 13  1  0  0  0  0
  9 14  1  0  0  0  0
  9 15  1  0  0  0  0
 10 16  1  0  0  0  0
 10 17  1  0  0  0  0
 10 18  1  0  0  0  0
 19 20  1  0  0  0  0
 19 28  1  0  0  0  0
 19 29  1  0  0  0  0
 20 21  4  0  0  0  0
 20 25  4  0  0  0  0
 21 22  4  0  0  0  0
 21 30  1  0  0  0  0
 22 23  4  0  0  0  0
 22 27  1  0  0  0  0
 23 24  4  0  0  0  0
 23 26  1  0  0  0  0
 24 25  4  0  0  0  0
 24 31  1  0  0  0  0
 25 32  1  0  0  0  0
 26 33  1  0  0  0  0
 27 34  1  0  0  0  0
M  END
> <BCLConfClusterSize>
1

> <ConfClashScore>
0 

> <ConfOneFourInteractionScore>
-0.974251 

> <ConfScore>
-0.108163 

> <ConfScorePBest>
0.0058117 

> <ConfTolerance>
0.289306 

> <RosettaParamsInstructions>
M  ROOT 3
M  POLY_N_BB 3
M  POLY_CA_BB 4
M  POLY_C_BB 2
M  POLY_O_BB 5
M  POLY_IGNORE 9 10 11 12 13 14 15 16 17 18 
M  POLY_UPPER 6
M  POLY_LOWER 8
M  POLY_CHG 0
M  POLY_PROPERTIES ALPHA_AA L_AA PROTEIN AROMATIC POLYMER 
M  END

$$$$



 34 34  0  0  0  0  0  0  0  0999 V2000
   -2.9407    1.7894    2.3111 H   0  0  0  1  0  0  0  0  0  0  0  0
   -1.1955    0.7051    2.7340 C   0  0  0  1  0  0  0  0  0  0  0  0
   -1.8172    2.9317    3.6014 N   0  0  0  1  0  0  0  0  0  0  0  0
   -1.9075    2.0137    2.4758 C   0  0  0  1  0  0  0  0  0  0  0  0
   -0.3582    0.6085    3.6302 O   0  0  0  1  0  0  0  0  0  0  0  0
   -1.5027   -0.3403    1.9609 N   0  0  0  1  0  0  0  0  0  0  0  0
   -0.9293    3.0955    3.9825 H   0  0  0  1  0  0  0  0  0  0  0  0
   -2.8929    3.5922    4.1753 C   0  0  0  1  0  0  0  0  0  0  0  0
   -0.7948   -1.6094    2.0516 C   0  0  0  1  0  0  0  0  0  0  0  0
   -2.6553    4.4777    5.3662 C   0  0  0  1  0  0  0  0  0  0  0  0
   -3.9992    3.4318    3.6929 O   0  0  0  1  0  0  0  0  0  0  0  0
   -2.2298   -0.2498    1.3101 H   0  0  0  1  0  0  0  0  0  0  0  0
   -0.5187   -1.7924    3.0691 H   0  0  0  1  0  0  0  0  0  0  0  0
    0.0856   -1.5706    1.4448 H   0  0  0  1  0  0  0  0  0  0  0  0
   -1.4312   -2.3979    1.7077 H   0  0  0  1  0  0  0  0  0  0  0  0
   -2.6736    3.8882    6.2590 H   0  0  0  1  0  0  0  0  0  0  0  0
   -3.4220    5.2225    5.4152 H   0  0  0  1  0  0  0  0  0  0  0  0
   -1.7012    4.9529    5.2724 H   0  0  0  1  0  0  0  0  0  0  0  0
   -1.3825    2.6887    1.2059 C   0  0  0  1  0  0  0  0  0  0  0  0
   -1.9420    4.0706    0.9982 C   0  0  0  1  0  0  0  0  0  0  0  0
   -1.0774    5.1312    0.7761 C   0  0  0  1  0  0  0  0  0  0  0  0
   -1.5731    6.4176    0.6772 C   0  0  0  1  0  0  0  0  0  0  0  0
   -2.9351    6.6467    0.7947 C   0  0  0  1  0  0  0  0  0  0  0  0
   -3.7970    5.5892    1.0162 C   0  0  0  1  0  0  0  0  0  0  0  0
   -3.3002    4.2989    1.1154 C   0  0  0  1  0  0  0  0  0  0  0  0
   -3.3973    7.9163    0.6888 O   0  0  0  1  0  0  0  0  0  0  0  0
   -0.7372    7.4631    0.4654 O   0  0  0  1  0  0  0  0  0  0  0  0
   -1.6479    2.0838    0.3641 H   0  0  0  1  0  0  0  0  0  0  0  0
   -0.3170    2.7593    1.2733 H   0  0  0  1  0  0  0  0  0  0  0  0
   -0.0560    4.9589    0.6839 H   0  0  0  1  0  0  0  0  0  0  0  0
   -4.8185    5.7615    1.1084 H   0  0  0  1  0  0  0  0  0  0  0  0
   -3.9492    3.5028    1.2780 H   0  0  0  1  0  0  0  0  0  0  0  0
   -2.7292    8.4670    0.2741 H   0  0  0  1  0  0  0  0  0  0  0  0
   -0.7845    8.0672    1.2100 H   0  0  0  1  0  0  0  0  0  0  0  0
  1  4  1  0  0  0  0
  2  4  1  0  0  0  0
  2  5  2  0  0  0  0
  2  6  1  0  0  0  0
  3  4  1  0  0  0  0
  3  7  1  0  0  0  0
  3  8  1  0  0  0  0
  4 19  1  0  0  0  0
  6  9  1  0  0  0  0
  6 12  1  0  0  0  0
  8 10  1  0  0  0  0
  8 11  2  0  0  0  0
  9 13  1  0  0  0  0
  9 14  1  0  0  0  0
  9 15  1  0  0  0  0
 10 16  1  0  0  0  0
 10 17  1  0  0  0  0
 10 18  1  0  0  0  0
 19 20  1  0  0  0  0
 19 28  1  0  0  0  0
 19 29  1  0  0  0  0
 20 21  4  0  0  0  0
 20 25  4  0  0  0  0
 21 22  4  0  0  0  0
 21 30  1  0  0  0  0
 22 23  4  0  0  0  0
 22 27  1  0  0  0  0
 23 24  4  0  0  0  0
 23 26  1  0  0  0  0
 24 25  4  0  0  0  0
 24 31  1  0  0  0  0
 25 32  1  0  0  0  0
 26 33  1  0  0  0  0
 27 34  1  0  0  0  0
M  END
> <BCLConfClusterSize>
1

> <ConfClashScore>
0 

> <ConfOneFourInteractionScore>
-0.992391 

> <ConfScore>
-0.105382 

> <ConfScorePBest>
0.00578322 

> <ConfTolerance>
0.459224 

> <RosettaParamsInstructions>
M  ROOT 3
M  POLY_N_BB 3
M  POLY_CA_BB 4
M  POLY_C_BB 2
M  POLY_O_BB 5
M  POLY_IGNORE 9 10 11 12 13 14 15 16 17 18 
M  POLY_UPPER 6
M  POLY_LOWER 8
M  POLY_CHG 0
M  POLY_PROPERTIES ALPHA_AA L_AA PROTEIN AROMATIC POLYMER 
M  END

$$$$



 34 34  0  0  0  0  0  0  0  0999 V2000
    0.2753    2.9724   -0.1000 H   0  0  0  1  0  0  0  0  0  0  0  0
    0.1162    0.8885    0.0297 C   0  0  0  1  0  0  0  0  0  0  0  0
   -1.2725    2.4135   -1.3401 N   0  0  0  1  0  0  0  0  0  0  0  0
   -0.5283    2.2665   -0.0712 C   0  0  0  1  0  0  0  0  0  0  0  0
   -0.3742   -0.0714   -0.5635 O   0  0  0  1  0  0  0  0  0  0  0  0
    1.1589    0.7649    0.8481 N   0  0  0  1  0  0  0  0  0  0  0  0
   -2.0493    1.8385   -1.5022 H   0  0  0  1  0  0  0  0  0  0  0  0
   -0.9194    3.3118   -2.2829 C   0  0  0  1  0  0  0  0  0  0  0  0
    1.7419   -0.5279    1.1746 C   0  0  0  1  0  0  0  0  0  0  0  0
   -1.6826    3.3074   -3.5931 C   0  0  0  1  0  0  0  0  0  0  0  0
   -0.0070    4.1105   -2.0880 O   0  0  0  1  0  0  0  0  0  0  0  0
    1.5473    1.5726    1.2446 H   0  0  0  1  0  0  0  0  0  0  0  0
    1.1008   -1.3083    0.8214 H   0  0  0  1  0  0  0  0  0  0  0  0
    1.8533   -0.6109    2.2356 H   0  0  0  1  0  0  0  0  0  0  0  0
    2.7004   -0.6149    0.7070 H   0  0  0  1  0  0  0  0  0  0  0  0
   -2.3825    2.4981   -3.5960 H   0  0  0  1  0  0  0  0  0  0  0  0
   -0.9961    3.1880   -4.4051 H   0  0  0  1  0  0  0  0  0  0  0  0
   -2.2079    4.2332   -3.7026 H   0  0  0  1  0  0  0  0  0  0  0  0
   -1.4089    2.6688    1.1149 C   0  0  0  1  0  0  0  0  0  0  0  0
   -1.9368    4.0744    1.0074 C   0  0  0  1  0  0  0  0  0  0  0  0
   -1.0649    5.1270    0.7758 C   0  0  0  1  0  0  0  0  0  0  0  0
   -1.5498    6.4179    0.6825 C   0  0  0  1  0  0  0  0  0  0  0  0
   -2.9082    6.6595    0.8152 C   0  0  0  1  0  0  0  0  0  0  0  0
   -3.7773    5.6100    1.0462 C   0  0  0  1  0  0  0  0  0  0  0  0
   -3.2913    4.3152    1.1397 C   0  0  0  1  0  0  0  0  0  0  0  0
   -3.4312    7.9067    0.7264 O   0  0  0  1  0  0  0  0  0  0  0  0
   -0.7366    7.4795    0.4623 O   0  0  0  1  0  0  0  0  0  0  0  0
   -0.8297    2.5901    2.0111 H   0  0  0  1  0  0  0  0  0  0  0  0
   -2.2393    1.9961    1.1661 H   0  0  0  1  0  0  0  0  0  0  0  0
   -0.0462    4.9453    0.6722 H   0  0  0  1  0  0  0  0  0  0  0  0
   -4.7961    5.7917    1.1497 H   0  0  0  1  0  0  0  0  0  0  0  0
   -3.9458    3.5250    1.3095 H   0  0  0  1  0  0  0  0  0  0  0  0
   -2.8926    8.4387    0.1360 H   0  0  0  1  0  0  0  0  0  0  0  0
   -0.6936    8.0200    1.2545 H   0  0  0  1  0  0  0  0  0  0  0  0
  1  4  1  0  0  0  0
  2  4  1  0  0  0  0
  2  5  2  0  0  0  0
  2  6  1  0  0  0  0
  3  4  1  0  0  0  0
  3  7  1  0  0  0  0
  3  8  1  0  0  0  0
  4 19  1  0  0  0  0
  6  9  1  0  0  0  0
  6 12  1  0  0  0  0
  8 10  1  0  0  0  0
  8 11  2  0  0  0  0
  9 13  1  0  0  0  0
  9 14  1  0  0  0  0
  9 15  1  0  0  0  0
 10 16  1  0  0  0  0
 10 17  1  0  0  0  0
 10 18  1  0  0  0  0
 19 20  1  0  0  0  0
 19 28  1  0  0  0  0
 19 29  1  0  0  0  0
 20 21  4  0  0  0  0
 20 25  4  0  0  0  0
 21 22  4  0  0  0  0
 21 30  1  0  0  0  0
 22 23  4  0  0  0  0
 22 27  1  0  0  0  0
 23 24  4  0  0  0  0
 23 26  1  0  0  0  0
 24 25  4  0  0  0  0
 24 31  1  0  0  0  0
 25 32  1  0  0  0  0
 26 33  1  0  0  0  0
 27 34  1  0  0  0  0
M  END
> <BCLConfClusterSize>
1

> <ConfClashScore>
0 

> <ConfOneFourInteractionScore>
-0.990503 

> <ConfScore>
-0.101276 

> <ConfScorePBest>
0.00575474 

> <ConfTolerance>
0.350193 

> <RosettaParamsInstructions>
M  ROOT 3
M  POLY_N_BB 3
M  POLY_CA_BB 4
M  POLY_C_BB 2
M  POLY_O_BB 5
M  POLY_IGNORE 9 10 11 12 13 14 15 16 17 18 
M  POLY_UPPER 6
M  POLY_LOWER 8
M  POLY_CHG 0
M  POLY_PROPERTIES ALPHA_AA L_AA PROTEIN AROMATIC POLYMER 
M  END

$$$$



 34 34  0  0  0  0  0  0  0  0999 V2000
    0.0299    2.7050   -0.3683 H   0  0  0  1  0  0  0  0  0  0  0  0
   -0.5682    0.6868   -0.0785 C   0  0  0  1  0  0  0  0  0  0  0  0
   -1.8038    2.4176   -1.2991 N   0  0  0  1  0  0  0  0  0  0  0  0
   -0.8828    2.1727   -0.1992 C   0  0  0  1  0  0  0  0  0  0  0  0
    0.4350    0.3061    0.5223 O   0  0  0  1  0  0  0  0  0  0  0  0
   -1.4985   -0.1246   -0.5896 N   0  0  0  1  0  0  0  0  0  0  0  0
   -2.7673    2.3509   -1.1329 H   0  0  0  1  0  0  0  0  0  0  0  0
   -1.3655    2.7419   -2.5739 C   0  0  0  1  0  0  0  0  0  0  0  0
   -1.4122   -1.5731   -0.4792 C   0  0  0  1  0  0  0  0  0  0  0  0
   -2.3759    2.9015   -3.6751 C   0  0  0  1  0  0  0  0  0  0  0  0
   -0.1710    2.8873   -2.7595 O   0  0  0  1  0  0  0  0  0  0  0  0
   -2.2657    0.2694   -1.0551 H   0  0  0  1  0  0  0  0  0  0  0  0
   -2.3977   -1.9869   -0.4288 H   0  0  0  1  0  0  0  0  0  0  0  0
   -0.8715   -1.8314    0.4073 H   0  0  0  1  0  0  0  0  0  0  0  0
   -0.9040   -1.9662   -1.3348 H   0  0  0  1  0  0  0  0  0  0  0  0
   -2.1955    3.8191   -4.1950 H   0  0  0  1  0  0  0  0  0  0  0  0
   -3.3603    2.9168   -3.2561 H   0  0  0  1  0  0  0  0  0  0  0  0
   -2.2911    2.0822   -4.3581 H   0  0  0  1  0  0  0  0  0  0  0  0
   -1.4971    2.6595    1.1179 C   0  0  0  1  0  0  0  0  0  0  0  0
   -1.9321    4.0997    1.0688 C   0  0  0  1  0  0  0  0  0  0  0  0
   -0.9930    5.1109    0.9372 C   0  0  0  1  0  0  0  0  0  0  0  0
   -1.4050    6.4240    0.8092 C   0  0  0  1  0  0  0  0  0  0  0  0
   -2.7571    6.7293    0.8070 C   0  0  0  1  0  0  0  0  0  0  0  0
   -3.6933    5.7210    0.9382 C   0  0  0  1  0  0  0  0  0  0  0  0
   -3.2803    4.4040    1.0667 C   0  0  0  1  0  0  0  0  0  0  0  0
   -3.2533    7.9842    0.6818 O   0  0  0  1  0  0  0  0  0  0  0  0
   -0.5250    7.4469    0.6830 O   0  0  0  1  0  0  0  0  0  0  0  0
   -0.7689    2.5499    1.8942 H   0  0  0  1  0  0  0  0  0  0  0  0
   -2.3503    2.0533    1.3403 H   0  0  0  1  0  0  0  0  0  0  0  0
    0.0213    4.8814    0.9348 H   0  0  0  1  0  0  0  0  0  0  0  0
   -4.7076    5.9505    0.9406 H   0  0  0  1  0  0  0  0  0  0  0  0
   -3.9850    3.6450    1.1614 H   0  0  0  1  0  0  0  0  0  0  0  0
   -3.9158    8.1359    1.3598 H   0  0  0  1  0  0  0  0  0  0  0  0
   -0.5560    7.7875   -0.2140 H   0  0  0  1  0  0  0  0  0  0  0  0
  1  4  1  0  0  0  0
  2  4  1  0  0  0  0
  2  5  2  0  0  0  0
  2  6  1  0  0  0  0
  3  4  1  0  0  0  0
  3  7  1  0  0  0  0
  3  8  1  0  0  0  0
  4 19  1  0  0  0  0
  6  9  1  0  0  0  0
  6 12  1  0  0  0  0
  8 10  1  0  0  0  0
  8 11  2  0  0  0  0
  9 13  1  0  0  0  0
  9 14  1  0  0  0  0
  9 15  1  0  0  0  0
 10 16  1  0  0  0  0
 10 17  1  0  0  0  0
 10 18  1  0  0  0  0
 19 20  1  0  0  0  0
 19 28  1  0  0  0  0
 19 29  1  0  0  0  0
 20 21  4  0  0  0  0
 20 25  4  0  0  0  0
 21 22  4  0  0  0  0
 21 30  1  0  0  0  0
 22 23  4  0  0  0  0
 22 27  1  0  0  0  0
 23 24  4  0  0  0  0
 23 26  1  0  0  0  0
 24 25  4  0  0  0  0
 24 31  1  0  0  0  0
 25 32  1  0  0  0  0
 26 33  1  0  0  0  0
 27 34  1  0  0  0  0
M  END
> <BCLConfClusterSize>
1

> <ConfClashScore>
0 

> <ConfOneFourInteractionScore>
-0.94165 

> <ConfScore>
-0.101074 

> <ConfScorePBest>
0.00572626 

> <ConfTolerance>
0.341809 

> <RosettaParamsInstructions>
M  ROOT 3
M  POLY_N_BB 3
M  POLY_CA_BB 4
M  POLY_C_BB 2
M  POLY_O_BB 5
M  POLY_IGNORE 9 10 11 12 13 14 15 16 17 18 
M  POLY_UPPER 6
M  POLY_LOWER 8
M  POLY_CHG 0
M  POLY_PROPERTIES ALPHA_AA L_AA PROTEIN AROMATIC POLYMER 
M  END

$$$$



 34 34  0  0  0  0  0  0  0  0999 V2000
    0.5808    2.9141    1.8681 H   0  0  0  1  0  0  0  0  0  0  0  0
   -0.5644    3.4337    3.5669 C   0  0  0  1  0  0  0  0  0  0  0  0
   -0.1841    1.1746    2.6823 N   0  0  0  1  0  0  0  0  0  0  0  0
   -0.3237    2.5802    2.3320 C   0  0  0  1  0  0  0  0  0  0  0  0
   -0.1430    4.5668    3.7030 O   0  0  0  1  0  0  0  0  0  0  0  0
   -1.2858    2.8675    4.5355 N   0  0  0  1  0  0  0  0  0  0  0  0
   -0.7541    0.5163    2.2327 H   0  0  0  1  0  0  0  0  0  0  0  0
    0.6941    0.7505    3.5955 C   0  0  0  1  0  0  0  0  0  0  0  0
   -1.6710    3.5206    5.7777 C   0  0  0  1  0  0  0  0  0  0  0  0
    0.7343   -0.7478    3.8247 C   0  0  0  1  0  0  0  0  0  0  0  0
    1.4250    1.5056    4.2152 O   0  0  0  1  0  0  0  0  0  0  0  0
   -1.5785    1.9421    4.4005 H   0  0  0  1  0  0  0  0  0  0  0  0
   -0.7935    3.8374    6.3017 H   0  0  0  1  0  0  0  0  0  0  0  0
   -2.2208    2.8333    6.3862 H   0  0  0  1  0  0  0  0  0  0  0  0
   -2.2818    4.3713    5.5586 H   0  0  0  1  0  0  0  0  0  0  0  0
   -0.0556   -1.0288    4.4895 H   0  0  0  1  0  0  0  0  0  0  0  0
    1.6758   -1.0173    4.2558 H   0  0  0  1  0  0  0  0  0  0  0  0
    0.6111   -1.2547    2.8904 H   0  0  0  1  0  0  0  0  0  0  0  0
   -1.4483    2.7166    1.3187 C   0  0  0  1  0  0  0  0  0  0  0  0
   -1.9170    4.1236    1.0604 C   0  0  0  1  0  0  0  0  0  0  0  0
   -1.0406    5.1547    0.7599 C   0  0  0  1  0  0  0  0  0  0  0  0
   -1.5246    6.4300    0.5368 C   0  0  0  1  0  0  0  0  0  0  0  0
   -2.8867    6.6768    0.6082 C   0  0  0  1  0  0  0  0  0  0  0  0
   -3.7604    5.6487    0.9079 C   0  0  0  1  0  0  0  0  0  0  0  0
   -3.2752    4.3697    1.1317 C   0  0  0  1  0  0  0  0  0  0  0  0
   -3.4516    7.8910    0.4000 O   0  0  0  1  0  0  0  0  0  0  0  0
   -0.6474    7.4224    0.2499 O   0  0  0  1  0  0  0  0  0  0  0  0
   -2.2837    2.1505    1.6745 H   0  0  0  1  0  0  0  0  0  0  0  0
   -1.1081    2.3065    0.3908 H   0  0  0  1  0  0  0  0  0  0  0  0
   -0.0190    4.9687    0.7024 H   0  0  0  1  0  0  0  0  0  0  0  0
   -4.7820    5.8347    0.9654 H   0  0  0  1  0  0  0  0  0  0  0  0
   -3.9331    3.5952    1.3532 H   0  0  0  1  0  0  0  0  0  0  0  0
   -3.5032    8.3674    1.2319 H   0  0  0  1  0  0  0  0  0  0  0  0
   -0.2900    7.7800    1.0659 H   0  0  0  1  0  0  0  0  0  0  0  0
  1  4  1  0  0  0  0
  2  4  1  0  0  0  0
  2  5  2  0  0  0  0
  2  6  1  0  0  0  0
  3  4  1  0  0  0  0
  3  7  1  0  0  0  0
  3  8  1  0  0  0  0
  4 19  1  0  0  0  0
  6  9  1  0  0  0  0
  6 12  1  0  0  0  0
  8 10  1  0  0  0  0
  8 11  2  0  0  0  0
  9 13  1  0  0  0  0
  9 14  1  0  0  0  0
  9 15  1  0  0  0  0
 10 16  1  0  0  0  0
 10 17  1  0  0  0  0
 10 18  1  0  0  0  0
 19 20  1  0  0  0  0
 19 28  1  0  0  0  0
 19 29  1  0  0  0  0
 20 21  4  0  0  0  0
 20 25  4  0  0  0  0
 21 22  4  0  0  0  0
 21 30  1  0  0  0  0
 22 23  4  0  0  0  0
 22 27  1  0  0  0  0
 23 24  4  0  0  0  0
 23 26  1  0  0  0  0
 24 25  4  0  0  0  0
 24 31  1  0  0  0  0
 25 32  1  0  0  0  0
 26 33  1  0  0  0  0
 27 34  1  0  0  0  0
M  END
> <BCLConfClusterSize>
1

> <ConfClashScore>
0 

> <ConfOneFourInteractionScore>
-0.960318 

> <ConfScore>
-0.10041 

> <ConfScorePBest>
0.00569778 

> <ConfTolerance>
0.570476 

> <RosettaParamsInstructions>
M  ROOT 3
M  POLY_N_BB 3
M  POLY_CA_BB 4
M  POLY_C_BB 2
M  POLY_O_BB 5
M  POLY_IGNORE 9 10 11 12 13 14 15 16 17 18 
M  POLY_UPPER 6
M  POLY_LOWER 8
M  POLY_CHG 0
M  POLY_PROPERTIES ALPHA_AA L_AA PROTEIN AROMATIC POLYMER 
M  END

$$$$



 34 34  0  0  0  0  0  0  0  0999 V2000
   -0.8068    1.1965    2.3885 H   0  0  0  1  0  0  0  0  0  0  0  0
   -0.0548    3.0265    3.0972 C   0  0  0  1  0  0  0  0  0  0  0  0
   -2.4158    2.1849    3.1993 N   0  0  0  1  0  0  0  0  0  0  0  0
   -1.1625    2.2031    2.4598 C   0  0  0  1  0  0  0  0  0  0  0  0
   -0.3003    4.1324    3.5758 O   0  0  0  1  0  0  0  0  0  0  0  0
    1.1857    2.5352    3.0279 N   0  0  0  1  0  0  0  0  0  0  0  0
   -2.6465    2.9562    3.7581 H   0  0  0  1  0  0  0  0  0  0  0  0
   -3.2948    1.1142    3.1408 C   0  0  0  1  0  0  0  0  0  0  0  0
    2.3176    3.3497    3.4401 C   0  0  0  1  0  0  0  0  0  0  0  0
   -4.5635    1.1708    3.9322 C   0  0  0  1  0  0  0  0  0  0  0  0
   -3.0035    0.1592    2.4440 O   0  0  0  1  0  0  0  0  0  0  0  0
    1.3331    1.6241    2.6986 H   0  0  0  1  0  0  0  0  0  0  0  0
    2.1507    3.7180    4.4308 H   0  0  0  1  0  0  0  0  0  0  0  0
    2.4272    4.1743    2.7671 H   0  0  0  1  0  0  0  0  0  0  0  0
    3.2078    2.7562    3.4258 H   0  0  0  1  0  0  0  0  0  0  0  0
   -5.1491    2.0060    3.6091 H   0  0  0  1  0  0  0  0  0  0  0  0
   -4.3310    1.2790    4.9710 H   0  0  0  1  0  0  0  0  0  0  0  0
   -5.1176    0.2677    3.7824 H   0  0  0  1  0  0  0  0  0  0  0  0
   -1.4449    2.6767    1.0400 C   0  0  0  1  0  0  0  0  0  0  0  0
   -1.9372    4.0980    0.9794 C   0  0  0  1  0  0  0  0  0  0  0  0
   -1.0465    5.1305    0.7303 C   0  0  0  1  0  0  0  0  0  0  0  0
   -1.4985    6.4357    0.6801 C   0  0  0  1  0  0  0  0  0  0  0  0
   -2.8430    6.7117    0.8735 C   0  0  0  1  0  0  0  0  0  0  0  0
   -3.7309    5.6821    1.1219 C   0  0  0  1  0  0  0  0  0  0  0  0
   -3.2779    4.3730    1.1723 C   0  0  0  1  0  0  0  0  0  0  0  0
   -3.3341    7.9741    0.8285 O   0  0  0  1  0  0  0  0  0  0  0  0
   -0.7024    7.5078    0.4483 O   0  0  0  1  0  0  0  0  0  0  0  0
   -2.1895    2.0397    0.6103 H   0  0  0  1  0  0  0  0  0  0  0  0
   -0.5416    2.6046    0.4710 H   0  0  0  1  0  0  0  0  0  0  0  0
   -0.0384    4.9232    0.5813 H   0  0  0  1  0  0  0  0  0  0  0  0
   -4.7391    5.8895    1.2710 H   0  0  0  1  0  0  0  0  0  0  0  0
   -3.9468    3.5979    1.3552 H   0  0  0  1  0  0  0  0  0  0  0  0
   -3.6227    8.1740   -0.0650 H   0  0  0  1  0  0  0  0  0  0  0  0
   -0.3167    7.8054    1.2755 H   0  0  0  1  0  0  0  0  0  0  0  0
  1  4  1  0  0  0  0
  2  4  1  0  0  0  0
  2  5  2  0  0  0  0
  2  6  1  0  0  0  0
  3  4  1  0  0  0  0
  3  7  1  0  0  0  0
  3  8  1  0  0  0  0
  4 19  1  0  0  0  0
  6  9  1  0  0  0  0
  6 12  1  0  0  0  0
  8 10  1  0  0  0  0
  8 11  2  0  0  0  0
  9 13  1  0  0  0  0
  9 14  1  0  0  0  0
  9 15  1  0  0  0  0
 10 16  1  0  0  0  0
 10 17  1  0  0  0  0
 10 18  1  0  0  0  0
 19 20  1  0  0  0  0
 19 28  1  0  0  0  0
 19 29  1  0  0  0  0
 20 21  4  0  0  0  0
 20 25  4  0  0  0  0
 21 22  4  0  0  0  0
 21 30  1  0  0  0  0
 22 23  4  0  0  0  0
 22 27  1  0  0  0  0
 23 24  4  0  0  0  0
 23 26  1  0  0  0  0
 24 25  4  0  0  0  0
 24 31  1  0  0  0  0
 25 32  1  0  0  0  0
 26 33  1  0  0  0  0
 27 34  1  0  0  0  0
M  END
> <BCLConfClusterSize>
1

> <ConfClashScore>
0 

> <ConfOneFourInteractionScore>
-0.980789 

> <ConfScore>
-0.097729 

> <ConfScorePBest>
0.0056693 

> <ConfTolerance>
0.275624 

> <RosettaParamsInstructions>
M  ROOT 3
M  POLY_N_BB 3
M  POLY_CA_BB 4
M  POLY_C_BB 2
M  POLY_O_BB 5
M  POLY_IGNORE 9 10 11 12 13 14 15 16 17 18 
M  POLY_UPPER 6
M  POLY_LOWER 8
M  POLY_CHG 0
M  POLY_PROPERTIES ALPHA_AA L_AA PROTEIN AROMATIC POLYMER 
M  END

$$$$



 34 34  0  0  0  0  0  0  0  0999 V2000
   -1.5830    2.5383    3.1695 H   0  0  0  1  0  0  0  0  0  0  0  0
   -0.2106    1.0667    2.5581 C   0  0  0  1  0  0  0  0  0  0  0  0
    0.2466    3.4217    2.8374 N   0  0  0  1  0  0  0  0  0  0  0  0
   -0.7839    2.4671    2.4616 C   0  0  0  1  0  0  0  0  0  0  0  0
   -0.8054    0.1060    2.0981 O   0  0  0  1  0  0  0  0  0  0  0  0
    0.9764    0.9641    3.1751 N   0  0  0  1  0  0  0  0  0  0  0  0
    0.9125    3.6866    2.1690 H   0  0  0  1  0  0  0  0  0  0  0  0
    0.3179    3.9547    4.0728 C   0  0  0  1  0  0  0  0  0  0  0  0
    1.7617   -0.2609    3.1510 C   0  0  0  1  0  0  0  0  0  0  0  0
    1.3306    5.0765    4.1950 C   0  0  0  1  0  0  0  0  0  0  0  0
   -0.3595    3.5899    5.0329 O   0  0  0  1  0  0  0  0  0  0  0  0
    1.3268    1.7411    3.6588 H   0  0  0  1  0  0  0  0  0  0  0  0
    1.3272   -0.9502    2.4575 H   0  0  0  1  0  0  0  0  0  0  0  0
    1.7719   -0.6970    4.1280 H   0  0  0  1  0  0  0  0  0  0  0  0
    2.7636   -0.0362    2.8498 H   0  0  0  1  0  0  0  0  0  0  0  0
    0.8513    5.9493    4.5868 H   0  0  0  1  0  0  0  0  0  0  0  0
    1.7374    5.2962    3.2301 H   0  0  0  1  0  0  0  0  0  0  0  0
    2.1178    4.7758    4.8545 H   0  0  0  1  0  0  0  0  0  0  0  0
   -1.3589    2.7904    1.0887 C   0  0  0  1  0  0  0  0  0  0  0  0
   -1.9279    4.1812    1.0003 C   0  0  0  1  0  0  0  0  0  0  0  0
   -1.0432    5.2314    0.8103 C   0  0  0  1  0  0  0  0  0  0  0  0
   -1.5166    6.5273    0.7280 C   0  0  0  1  0  0  0  0  0  0  0  0
   -2.8764    6.7764    0.8302 C   0  0  0  1  0  0  0  0  0  0  0  0
   -3.7583    5.7293    1.0196 C   0  0  0  1  0  0  0  0  0  0  0  0
   -3.2837    4.4295    1.1021 C   0  0  0  1  0  0  0  0  0  0  0  0
   -3.3528    8.0423    0.7458 O   0  0  0  1  0  0  0  0  0  0  0  0
   -0.5936    7.5030    0.5472 O   0  0  0  1  0  0  0  0  0  0  0  0
   -2.1377    2.0894    0.8721 H   0  0  0  1  0  0  0  0  0  0  0  0
   -0.5796    2.6944    0.3619 H   0  0  0  1  0  0  0  0  0  0  0  0
   -0.0234    5.0441    0.7297 H   0  0  0  1  0  0  0  0  0  0  0  0
   -4.7781    5.9165    1.1002 H   0  0  0  1  0  0  0  0  0  0  0  0
   -3.9478    3.6412    1.2407 H   0  0  0  1  0  0  0  0  0  0  0  0
   -4.2684    8.0600    1.0340 H   0  0  0  1  0  0  0  0  0  0  0  0
    0.2498    7.1072    0.3155 H   0  0  0  1  0  0  0  0  0  0  0  0
  1  4  1  0  0  0  0
  2  4  1  0  0  0  0
  2  5  2  0  0  0  0
  2  6  1  0  0  0  0
  3  4  1  0  0  0  0
  3  7  1  0  0  0  0
  3  8  1  0  0  0  0
  4 19  1  0  0  0  0
  6  9  1  0  0  0  0
  6 12  1  0  0  0  0
  8 10  1  0  0  0  0
  8 11  2  0  0  0  0
  9 13  1  0  0  0  0
  9 14  1  0  0  0  0
  9 15  1  0  0  0  0
 10 16  1  0  0  0  0
 10 17  1  0  0  0  0
 10 18  1  0  0  0  0
 19 20  1  0  0  0  0
 19 28  1  0  0  0  0
 19 29  1  0  0  0  0
 20 21  4  0  0  0  0
 20 25  4  0  0  0  0
 21 22  4  0  0  0  0
 21 30  1  0  0  0  0
 22 23  4  0  0  0  0
 22 27  1  0  0  0  0
 23 24  4  0  0  0  0
 23 26  1  0  0  0  0
 24 25  4  0  0  0  0
 24 31  1  0  0  0  0
 25 32  1  0  0  0  0
 26 33  1  0  0  0  0
 27 34  1  0  0  0  0
M  END
> <BCLConfClusterSize>
1

> <ConfClashScore>
0 

> <ConfOneFourInteractionScore>
-0.94165 

> <ConfScore>
-0.0969371 

> <ConfScorePBest>
0.00564082 

> <ConfTolerance>
0.316039 

> <RosettaParamsInstructions>
M  ROOT 3
M  POLY_N_BB 3
M  POLY_CA_BB 4
M  POLY_C_BB 2
M  POLY_O_BB 5
M  POLY_IGNORE 9 10 11 12 13 14 15 16 17 18 
M  POLY_UPPER 6
M  POLY_LOWER 8
M  POLY_CHG 0
M  POLY_PROPERTIES ALPHA_AA L_AA PROTEIN AROMATIC POLYMER 
M  END

$$$$



 34 34  0  0  0  0  0  0  0  0999 V2000
   -1.1459    0.9788   -0.1284 H   0  0  0  1  0  0  0  0  0  0  0  0
   -2.8325    1.9268   -0.9033 C   0  0  0  1  0  0  0  0  0  0  0  0
   -0.4779    2.5633   -1.2628 N   0  0  0  1  0  0  0  0  0  0  0  0
   -1.4462    1.9908   -0.3035 C   0  0  0  1  0  0  0  0  0  0  0  0
   -3.1967    2.7519   -1.7401 O   0  0  0  1  0  0  0  0  0  0  0  0
   -3.6559    0.9395   -0.4938 N   0  0  0  1  0  0  0  0  0  0  0  0
   -0.7642    3.2605   -1.8892 H   0  0  0  1  0  0  0  0  0  0  0  0
    0.7866    2.1322   -1.2776 C   0  0  0  1  0  0  0  0  0  0  0  0
   -5.0241    0.8779   -0.9858 C   0  0  0  1  0  0  0  0  0  0  0  0
    1.6642    2.7027   -2.3747 C   0  0  0  1  0  0  0  0  0  0  0  0
    1.2278    1.3258   -0.4631 O   0  0  0  1  0  0  0  0  0  0  0  0
   -3.3319    0.2625    0.1363 H   0  0  0  1  0  0  0  0  0  0  0  0
   -5.0782    1.3395   -1.9496 H   0  0  0  1  0  0  0  0  0  0  0  0
   -5.6706    1.3936   -0.3068 H   0  0  0  1  0  0  0  0  0  0  0  0
   -5.3295   -0.1447   -1.0627 H   0  0  0  1  0  0  0  0  0  0  0  0
    1.7553    3.7609   -2.2451 H   0  0  0  1  0  0  0  0  0  0  0  0
    1.2227    2.4970   -3.3274 H   0  0  0  1  0  0  0  0  0  0  0  0
    2.6337    2.2528   -2.3257 H   0  0  0  1  0  0  0  0  0  0  0  0
   -1.3467    2.7053    1.0479 C   0  0  0  1  0  0  0  0  0  0  0  0
   -1.9396    4.0992    1.0273 C   0  0  0  1  0  0  0  0  0  0  0  0
   -1.0926    5.1694    0.7848 C   0  0  0  1  0  0  0  0  0  0  0  0
   -1.6078    6.4473    0.6757 C   0  0  0  1  0  0  0  0  0  0  0  0
   -2.9719    6.6580    0.8034 C   0  0  0  1  0  0  0  0  0  0  0  0
   -3.8162    5.5909    1.0452 C   0  0  0  1  0  0  0  0  0  0  0  0
   -3.2997    4.3092    1.1546 C   0  0  0  1  0  0  0  0  0  0  0  0
   -3.4534    7.9195    0.6872 O   0  0  0  1  0  0  0  0  0  0  0  0
   -0.7589    7.4779    0.4437 O   0  0  0  1  0  0  0  0  0  0  0  0
   -0.3142    2.7783    1.3193 H   0  0  0  1  0  0  0  0  0  0  0  0
   -1.8681    2.1242    1.7796 H   0  0  0  1  0  0  0  0  0  0  0  0
   -0.0696    5.0108    0.6850 H   0  0  0  1  0  0  0  0  0  0  0  0
   -4.8392    5.7495    1.1450 H   0  0  0  1  0  0  0  0  0  0  0  0
   -3.9356    3.5057    1.3325 H   0  0  0  1  0  0  0  0  0  0  0  0
   -2.8356    8.4531    0.1821 H   0  0  0  1  0  0  0  0  0  0  0  0
   -0.5124    7.8840    1.2779 H   0  0  0  1  0  0  0  0  0  0  0  0
  1  4  1  0  0  0  0
  2  4  1  0  0  0  0
  2  5  2  0  0  0  0
  2  6  1  0  0  0  0
  3  4  1  0  0  0  0
  3  7  1  0  0  0  0
  3  8  1  0  0  0  0
  4 19  1  0  0  0  0
  6  9  1  0  0  0  0
  6 12  1  0  0  0  0
  8 10  1  0  0  0  0
  8 11  2  0  0  0  0
  9 13  1  0  0  0  0
  9 14  1  0  0  0  0
  9 15  1  0  0  0  0
 10 16  1  0  0  0  0
 10 17  1  0  0  0  0
 10 18  1  0  0  0  0
 19 20  1  0  0  0  0
 19 28  1  0  0  0  0
 19 29  1  0  0  0  0
 20 21  4  0  0  0  0
 20 25  4  0  0  0  0
 21 22  4  0  0  0  0
 21 30  1  0  0  0  0
 22 23  4  0  0  0  0
 22 27  1  0  0  0  0
 23 24  4  0  0  0  0
 23 26  1  0  0  0  0
 24 25  4  0  0  0  0
 24 31  1  0  0  0  0
 25 32  1  0  0  0  0
 26 33  1  0  0  0  0
 27 34  1  0  0  0  0
M  END
> <BCLConfClusterSize>
1

> <ConfClashScore>
0 

> <ConfOneFourInteractionScore>
-0.987258 

> <ConfScore>
-0.0946387 

> <ConfScorePBest>
0.00561234 

> <ConfTolerance>
0.237647 

> <RosettaParamsInstructions>
M  ROOT 3
M  POLY_N_BB 3
M  POLY_CA_BB 4
M  POLY_C_BB 2
M  POLY_O_BB 5
M  POLY_IGNORE 9 10 11 12 13 14 15 16 17 18 
M  POLY_UPPER 6
M  POLY_LOWER 8
M  POLY_CHG 0
M  POLY_PROPERTIES ALPHA_AA L_AA PROTEIN AROMATIC POLYMER 
M  END

$$$$



 34 34  0  0  0  0  0  0  0  0999 V2000
   -0.1482    3.1202   -0.5103 H   0  0  0  1  0  0  0  0  0  0  0  0
    0.3738    1.1819    0.1216 C   0  0  0  1  0  0  0  0  0  0  0  0
   -1.7283    1.8895   -1.0030 N   0  0  0  1  0  0  0  0  0  0  0  0
   -0.6557    2.2756   -0.0932 C   0  0  0  1  0  0  0  0  0  0  0  0
    0.0759    0.0015    0.1412 O   0  0  0  1  0  0  0  0  0  0  0  0
    1.6598    1.5221    0.2967 N   0  0  0  1  0  0  0  0  0  0  0  0
   -2.6301    1.8024   -0.6293 H   0  0  0  1  0  0  0  0  0  0  0  0
   -1.5743    1.6461   -2.3055 C   0  0  0  1  0  0  0  0  0  0  0  0
    2.6692    0.4910    0.4857 C   0  0  0  1  0  0  0  0  0  0  0  0
   -2.8213    1.1948   -3.0765 C   0  0  0  1  0  0  0  0  0  0  0  0
   -0.5207    1.8406   -2.9059 O   0  0  0  1  0  0  0  0  0  0  0  0
    1.9199    2.4669    0.2973 H   0  0  0  1  0  0  0  0  0  0  0  0
    2.5569   -0.2611   -0.2671 H   0  0  0  1  0  0  0  0  0  0  0  0
    2.5497    0.0482    1.4524 H   0  0  0  1  0  0  0  0  0  0  0  0
    3.6432    0.9276    0.4107 H   0  0  0  1  0  0  0  0  0  0  0  0
   -3.2691    0.3622   -2.5755 H   0  0  0  1  0  0  0  0  0  0  0  0
   -2.5420    0.9059   -4.0682 H   0  0  0  1  0  0  0  0  0  0  0  0
   -3.5225    2.0016   -3.1237 H   0  0  0  1  0  0  0  0  0  0  0  0
   -1.3214    2.7366    1.2074 C   0  0  0  1  0  0  0  0  0  0  0  0
   -1.9410    4.0978    1.0364 C   0  0  0  1  0  0  0  0  0  0  0  0
   -1.0953    5.1664    0.7821 C   0  0  0  1  0  0  0  0  0  0  0  0
   -1.6159    6.4368    0.6228 C   0  0  0  1  0  0  0  0  0  0  0  0
   -2.9840    6.6416    0.7120 C   0  0  0  1  0  0  0  0  0  0  0  0
   -3.8270    5.5761    0.9656 C   0  0  0  1  0  0  0  0  0  0  0  0
   -3.3051    4.3019    1.1254 C   0  0  0  1  0  0  0  0  0  0  0  0
   -3.4706    7.8956    0.5469 O   0  0  0  1  0  0  0  0  0  0  0  0
   -0.7683    7.4660    0.3802 O   0  0  0  1  0  0  0  0  0  0  0  0
   -0.5846    2.7813    1.9820 H   0  0  0  1  0  0  0  0  0  0  0  0
   -2.0832    2.0360    1.4790 H   0  0  0  1  0  0  0  0  0  0  0  0
   -0.0693    5.0121    0.7112 H   0  0  0  1  0  0  0  0  0  0  0  0
   -4.8530    5.7304    1.0365 H   0  0  0  1  0  0  0  0  0  0  0  0
   -3.9399    3.4996    1.3122 H   0  0  0  1  0  0  0  0  0  0  0  0
   -2.7579    8.5313    0.6445 H   0  0  0  1  0  0  0  0  0  0  0  0
   -0.5305    7.8876    1.2093 H   0  0  0  1  0  0  0  0  0  0  0  0
  1  4  1  0  0  0  0
  2  4  1  0  0  0  0
  2  5  2  0  0  0  0
  2  6  1  0  0  0  0
  3  4  1  0  0  0  0
  3  7  1  0  0  0  0
  3  8  1  0  0  0  0
  4 19  1  0  0  0  0
  6  9  1  0  0  0  0
  6 12  1  0  0  0  0
  8 10  1  0  0  0  0
  8 11  2  0  0  0  0
  9 13  1  0  0  0  0
  9 14  1  0  0  0  0
  9 15  1  0  0  0  0
 10 16  1  0  0  0  0
 10 17  1  0  0  0  0
 10 18  1  0  0  0  0
 19 20  1  0  0  0  0
 19 28  1  0  0  0  0
 19 29  1  0  0  0  0
 20 21  4  0  0  0  0
 20 25  4  0  0  0  0
 21 22  4  0  0  0  0
 21 30  1  0  0  0  0
 22 23  4  0  0  0  0
 22 27  1  0  0  0  0
 23 24  4  0  0  0  0
 23 26  1  0  0  0  0
 24 25  4  0  0  0  0
 24 31  1  0  0  0  0
 25 32  1  0  0  0  0
 26 33  1  0  0  0  0
 27 34  1  0  0  0  0
M  END
> <BCLConfClusterSize>
1

> <ConfClashScore>
0 

> <ConfOneFourInteractionScore>
-0.974251 

> <ConfScore>
-0.0883489 

> <ConfScorePBest>
0.00558386 

> <ConfTolerance>
0.383164 

> <RosettaParamsInstructions>
M  ROOT 3
M  POLY_N_BB 3
M  POLY_CA_BB 4
M  POLY_C_BB 2
M  POLY_O_BB 5
M  POLY_IGNORE 9 10 11 12 13 14 15 16 17 18 
M  POLY_UPPER 6
M  POLY_LOWER 8
M  POLY_CHG 0
M  POLY_PROPERTIES ALPHA_AA L_AA PROTEIN AROMATIC POLYMER 
M  END

$$$$



 34 34  0  0  0  0  0  0  0  0999 V2000
   -3.0994    1.7971    0.2737 H   0  0  0  1  0  0  0  0  0  0  0  0
   -1.8073    2.1130   -1.3696 C   0  0  0  1  0  0  0  0  0  0  0  0
   -1.5940    0.3682    0.2658 N   0  0  0  1  0  0  0  0  0  0  0  0
   -2.0469    1.7503    0.0865 C   0  0  0  1  0  0  0  0  0  0  0  0
   -2.4828    2.9732   -1.9328 O   0  0  0  1  0  0  0  0  0  0  0  0
   -0.8275    1.4415   -1.9813 N   0  0  0  1  0  0  0  0  0  0  0  0
   -0.8090    0.2186    0.8331 H   0  0  0  1  0  0  0  0  0  0  0  0
   -2.1706   -0.7033   -0.2860 C   0  0  0  1  0  0  0  0  0  0  0  0
   -0.5049    1.6449   -3.3858 C   0  0  0  1  0  0  0  0  0  0  0  0
   -1.4416   -2.0183   -0.0891 C   0  0  0  1  0  0  0  0  0  0  0  0
   -3.2234   -0.6463   -0.9158 O   0  0  0  1  0  0  0  0  0  0  0  0
   -0.3081    0.7893   -1.4664 H   0  0  0  1  0  0  0  0  0  0  0  0
    0.2599    0.9568   -3.6799 H   0  0  0  1  0  0  0  0  0  0  0  0
   -0.1577    2.6467   -3.5302 H   0  0  0  1  0  0  0  0  0  0  0  0
   -1.3796    1.4809   -3.9798 H   0  0  0  1  0  0  0  0  0  0  0  0
   -1.7280   -2.7042   -0.8588 H   0  0  0  1  0  0  0  0  0  0  0  0
   -1.6967   -2.4277    0.8661 H   0  0  0  1  0  0  0  0  0  0  0  0
   -0.3858   -1.8510   -0.1355 H   0  0  0  1  0  0  0  0  0  0  0  0
   -1.3541    2.7493    1.0184 C   0  0  0  1  0  0  0  0  0  0  0  0
   -1.9371    4.1347    0.9360 C   0  0  0  1  0  0  0  0  0  0  0  0
   -1.0930    5.2224    0.7749 C   0  0  0  1  0  0  0  0  0  0  0  0
   -1.6078    6.5049    0.7916 C   0  0  0  1  0  0  0  0  0  0  0  0
   -2.9688    6.7034    0.9641 C   0  0  0  1  0  0  0  0  0  0  0  0
   -3.8103    5.6189    1.1248 C   0  0  0  1  0  0  0  0  0  0  0  0
   -3.2942    4.3324    1.1080 C   0  0  0  1  0  0  0  0  0  0  0  0
   -3.4024    7.9874    0.9644 O   0  0  0  1  0  0  0  0  0  0  0  0
   -0.8606    7.6263    0.6474 O   0  0  0  1  0  0  0  0  0  0  0  0
   -0.3183    2.7994    0.7544 H   0  0  0  1  0  0  0  0  0  0  0  0
   -1.4496    2.3989    2.0249 H   0  0  0  1  0  0  0  0  0  0  0  0
   -0.0724    5.0734    0.6414 H   0  0  0  1  0  0  0  0  0  0  0  0
   -4.8309    5.7679    1.2582 H   0  0  0  1  0  0  0  0  0  0  0  0
   -3.9280    3.5162    1.2249 H   0  0  0  1  0  0  0  0  0  0  0  0
   -3.3867    8.3312    0.0682 H   0  0  0  1  0  0  0  0  0  0  0  0
    0.0670    7.4113    0.7700 H   0  0  0  1  0  0  0  0  0  0  0  0
  1  4  1  0  0  0  0
  2  4  1  0  0  0  0
  2  5  2  0  0  0  0
  2  6  1  0  0  0  0
  3  4  1  0  0  0  0
  3  7  1  0  0  0  0
  3  8  1  0  0  0  0
  4 19  1  0  0  0  0
  6  9  1  0  0  0  0
  6 12  1  0  0  0  0
  8 10  1  0  0  0  0
  8 11  2  0  0  0  0
  9 13  1  0  0  0  0
  9 14  1  0  0  0  0
  9 15  1  0  0  0  0
 10 16  1  0  0  0  0
 10 17  1  0  0  0  0
 10 18  1  0  0  0  0
 19 20  1  0  0  0  0
 19 28  1  0  0  0  0
 19 29  1  0  0  0  0
 20 21  4  0  0  0  0
 20 25  4  0  0  0  0
 21 22  4  0  0  0  0
 21 30  1  0  0  0  0
 22 23  4  0  0  0  0
 22 27  1  0  0  0  0
 23 24  4  0  0  0  0
 23 26  1  0  0  0  0
 24 25  4  0  0  0  0
 24 31  1  0  0  0  0
 25 32  1  0  0  0  0
 26 33  1  0  0  0  0
 27 34  1  0  0  0  0
M  END
> <BCLConfClusterSize>
1

> <ConfClashScore>
0 

> <ConfOneFourInteractionScore>
-0.94165 

> <ConfScore>
-0.0853512 

> <ConfScorePBest>
0.00555537 

> <ConfTolerance>
0.478637 

> <RosettaParamsInstructions>
M  ROOT 3
M  POLY_N_BB 3
M  POLY_CA_BB 4
M  POLY_C_BB 2
M  POLY_O_BB 5
M  POLY_IGNORE 9 10 11 12 13 14 15 16 17 18 
M  POLY_UPPER 6
M  POLY_LOWER 8
M  POLY_CHG 0
M  POLY_PROPERTIES ALPHA_AA L_AA PROTEIN AROMATIC POLYMER 
M  END

$$$$



 34 34  0  0  0  0  0  0  0  0999 V2000
   -1.0238    1.0635   -0.3854 H   0  0  0  1  0  0  0  0  0  0  0  0
   -2.8378    1.8960   -1.0721 C   0  0  0  1  0  0  0  0  0  0  0  0
   -0.5464    2.8793   -1.2560 N   0  0  0  1  0  0  0  0  0  0  0  0
   -1.4497    2.0424   -0.4584 C   0  0  0  1  0  0  0  0  0  0  0  0
   -3.5379    0.9144   -0.8381 O   0  0  0  1  0  0  0  0  0  0  0  0
   -3.2289    2.8954   -1.8680 N   0  0  0  1  0  0  0  0  0  0  0  0
   -0.0276    3.5780   -0.8053 H   0  0  0  1  0  0  0  0  0  0  0  0
   -0.4059    2.7214   -2.5810 C   0  0  0  1  0  0  0  0  0  0  0  0
   -4.4787    2.9270   -2.6128 C   0  0  0  1  0  0  0  0  0  0  0  0
    0.6719    3.5645   -3.2342 C   0  0  0  1  0  0  0  0  0  0  0  0
   -1.0921    1.9534   -3.2349 O   0  0  0  1  0  0  0  0  0  0  0  0
   -2.6288    3.6651   -1.9570 H   0  0  0  1  0  0  0  0  0  0  0  0
   -4.7691    1.9287   -2.8657 H   0  0  0  1  0  0  0  0  0  0  0  0
   -4.3456    3.4972   -3.5084 H   0  0  0  1  0  0  0  0  0  0  0  0
   -5.2404    3.3783   -2.0119 H   0  0  0  1  0  0  0  0  0  0  0  0
    1.6127    3.3691   -2.7634 H   0  0  0  1  0  0  0  0  0  0  0  0
    0.4279    4.6008   -3.1266 H   0  0  0  1  0  0  0  0  0  0  0  0
    0.7356    3.3187   -4.2736 H   0  0  0  1  0  0  0  0  0  0  0  0
   -1.4773    2.6389    0.9523 C   0  0  0  1  0  0  0  0  0  0  0  0
   -1.9408    4.0708    0.9781 C   0  0  0  1  0  0  0  0  0  0  0  0
   -1.0158    5.1007    0.9055 C   0  0  0  1  0  0  0  0  0  0  0  0
   -1.4418    6.4153    0.9346 C   0  0  0  1  0  0  0  0  0  0  0  0
   -2.7942    6.7038    1.0310 C   0  0  0  1  0  0  0  0  0  0  0  0
   -3.7163    5.6769    1.1033 C   0  0  0  1  0  0  0  0  0  0  0  0
   -3.2893    4.3584    1.0741 C   0  0  0  1  0  0  0  0  0  0  0  0
   -3.2602    7.9761    1.0578 O   0  0  0  1  0  0  0  0  0  0  0  0
   -0.5756    7.4556    0.8717 O   0  0  0  1  0  0  0  0  0  0  0  0
   -0.4894    2.5933    1.3607 H   0  0  0  1  0  0  0  0  0  0  0  0
   -2.1406    2.0553    1.5559 H   0  0  0  1  0  0  0  0  0  0  0  0
   -0.0015    4.8843    0.8292 H   0  0  0  1  0  0  0  0  0  0  0  0
   -4.7306    5.8933    1.1796 H   0  0  0  1  0  0  0  0  0  0  0  0
   -3.9836    3.5857    1.1245 H   0  0  0  1  0  0  0  0  0  0  0  0
   -3.5008    8.2481    0.1691 H   0  0  0  1  0  0  0  0  0  0  0  0
   -0.7516    7.9718    0.0816 H   0  0  0  1  0  0  0  0  0  0  0  0
  1  4  1  0  0  0  0
  2  4  1  0  0  0  0
  2  5  2  0  0  0  0
  2  6  1  0  0  0  0
  3  4  1  0  0  0  0
  3  7  1  0  0  0  0
  3  8  1  0  0  0  0
  4 19  1  0  0  0  0
  6  9  1  0  0  0  0
  6 12  1  0  0  0  0
  8 10  1  0  0  0  0
  8 11  2  0  0  0  0
  9 13  1  0  0  0  0
  9 14  1  0  0  0  0
  9 15  1  0  0  0  0
 10 16  1  0  0  0  0
 10 17  1  0  0  0  0
 10 18  1  0  0  0  0
 19 20  1  0  0  0  0
 19 28  1  0  0  0  0
 19 29  1  0  0  0  0
 20 21  4  0  0  0  0
 20 25  4  0  0  0  0
 21 22  4  0  0  0  0
 21 30  1  0  0  0  0
 22 23  4  0  0  0  0
 22 27  1  0  0  0  0
 23 24  4  0  0  0  0
 23 26  1  0  0  0  0
 24 25  4  0  0  0  0
 24 31  1  0  0  0  0
 25 32  1  0  0  0  0
 26 33  1  0  0  0  0
 27 34  1  0  0  0  0
M  END
> <BCLConfClusterSize>
1

> <ConfClashScore>
0 

> <ConfOneFourInteractionScore>
-0.950605 

> <ConfScore>
-0.076285 

> <ConfScorePBest>
0.00552689 

> <ConfTolerance>
0.248964 

> <RosettaParamsInstructions>
M  ROOT 3
M  POLY_N_BB 3
M  POLY_CA_BB 4
M  POLY_C_BB 2
M  POLY_O_BB 5
M  POLY_IGNORE 9 10 11 12 13 14 15 16 17 18 
M  POLY_UPPER 6
M  POLY_LOWER 8
M  POLY_CHG 0
M  POLY_PROPERTIES ALPHA_AA L_AA PROTEIN AROMATIC POLYMER 
M  END

$$$$



 34 34  0  0  0  0  0  0  0  0999 V2000
   -2.9954    1.9300    2.2847 H   0  0  0  1  0  0  0  0  0  0  0  0
   -1.5135    0.4597    2.2570 C   0  0  0  1  0  0  0  0  0  0  0  0
   -1.4939    2.6327    3.4749 N   0  0  0  1  0  0  0  0  0  0  0  0
   -1.9254    1.9218    2.2821 C   0  0  0  1  0  0  0  0  0  0  0  0
   -1.6234   -0.2611    1.2831 O   0  0  0  1  0  0  0  0  0  0  0  0
   -1.0045   -0.0234    3.3939 N   0  0  0  1  0  0  0  0  0  0  0  0
   -0.5968    3.0268    3.4921 H   0  0  0  1  0  0  0  0  0  0  0  0
   -2.2779    2.7673    4.5484 C   0  0  0  1  0  0  0  0  0  0  0  0
   -0.7805   -1.4461    3.6026 C   0  0  0  1  0  0  0  0  0  0  0  0
   -1.6047    3.3164    5.7911 C   0  0  0  1  0  0  0  0  0  0  0  0
   -3.4718    2.4701    4.5475 O   0  0  0  1  0  0  0  0  0  0  0  0
   -0.7740    0.6021    4.1123 H   0  0  0  1  0  0  0  0  0  0  0  0
   -1.1674   -1.9946    2.7694 H   0  0  0  1  0  0  0  0  0  0  0  0
   -1.2785   -1.7579    4.4969 H   0  0  0  1  0  0  0  0  0  0  0  0
    0.2692   -1.6318    3.6951 H   0  0  0  1  0  0  0  0  0  0  0  0
   -0.7922    2.6779    6.0689 H   0  0  0  1  0  0  0  0  0  0  0  0
   -2.3138    3.3594    6.5912 H   0  0  0  1  0  0  0  0  0  0  0  0
   -1.2328    4.2994    5.5902 H   0  0  0  1  0  0  0  0  0  0  0  0
   -1.4997    2.6564    1.0176 C   0  0  0  1  0  0  0  0  0  0  0  0
   -1.9372    4.0966    0.9967 C   0  0  0  1  0  0  0  0  0  0  0  0
   -0.9932    5.1069    0.8978 C   0  0  0  1  0  0  0  0  0  0  0  0
   -1.3953    6.4292    0.8840 C   0  0  0  1  0  0  0  0  0  0  0  0
   -2.7426    6.7449    0.9638 C   0  0  0  1  0  0  0  0  0  0  0  0
   -3.6837    5.7375    1.0624 C   0  0  0  1  0  0  0  0  0  0  0  0
   -3.2807    4.4113    1.0762 C   0  0  0  1  0  0  0  0  0  0  0  0
   -3.1855    8.0257    0.9488 O   0  0  0  1  0  0  0  0  0  0  0  0
   -0.5099    7.4513    0.7940 O   0  0  0  1  0  0  0  0  0  0  0  0
   -1.9286    2.1579    0.1735 H   0  0  0  1  0  0  0  0  0  0  0  0
   -0.4325    2.6235    0.9476 H   0  0  0  1  0  0  0  0  0  0  0  0
    0.0174    4.8699    0.8339 H   0  0  0  1  0  0  0  0  0  0  0  0
   -4.6943    5.9745    1.1263 H   0  0  0  1  0  0  0  0  0  0  0  0
   -3.9891    3.6532    1.1464 H   0  0  0  1  0  0  0  0  0  0  0  0
   -4.0985    8.0456    0.6530 H   0  0  0  1  0  0  0  0  0  0  0  0
   -0.4870    7.7769   -0.1088 H   0  0  0  1  0  0  0  0  0  0  0  0
  1  4  1  0  0  0  0
  2  4  1  0  0  0  0
  2  5  2  0  0  0  0
  2  6  1  0  0  0  0
  3  4  1  0  0  0  0
  3  7  1  0  0  0  0
  3  8  1  0  0  0  0
  4 19  1  0  0  0  0
  6  9  1  0  0  0  0
  6 12  1  0  0  0  0
  8 10  1  0  0  0  0
  8 11  2  0  0  0  0
  9 13  1  0  0  0  0
  9 14  1  0  0  0  0
  9 15  1  0  0  0  0
 10 16  1  0  0  0  0
 10 17  1  0  0  0  0
 10 18  1  0  0  0  0
 19 20  1  0  0  0  0
 19 28  1  0  0  0  0
 19 29  1  0  0  0  0
 20 21  4  0  0  0  0
 20 25  4  0  0  0  0
 21 22  4  0  0  0  0
 21 30  1  0  0  0  0
 22 23  4  0  0  0  0
 22 27  1  0  0  0  0
 23 24  4  0  0  0  0
 23 26  1  0  0  0  0
 24 25  4  0  0  0  0
 24 31  1  0  0  0  0
 25 32  1  0  0  0  0
 26 33  1  0  0  0  0
 27 34  1  0  0  0  0
M  END
> <BCLConfClusterSize>
1

> <ConfClashScore>
0 

> <ConfOneFourInteractionScore>
-0.94165 

> <ConfScore>
-0.0761487 

> <ConfScorePBest>
0.00549841 

> <ConfTolerance>
0.307595 

> <RosettaParamsInstructions>
M  ROOT 3
M  POLY_N_BB 3
M  POLY_CA_BB 4
M  POLY_C_BB 2
M  POLY_O_BB 5
M  POLY_IGNORE 9 10 11 12 13 14 15 16 17 18 
M  POLY_UPPER 6
M  POLY_LOWER 8
M  POLY_CHG 0
M  POLY_PROPERTIES ALPHA_AA L_AA PROTEIN AROMATIC POLYMER 
M  END

$$$$



 34 34  0  0  0  0  0  0  0  0999 V2000
   -0.8995    1.0083    0.1482 H   0  0  0  1  0  0  0  0  0  0  0  0
   -2.6572    1.7698   -0.7198 C   0  0  0  1  0  0  0  0  0  0  0  0
   -0.3537    2.6377   -0.9826 N   0  0  0  1  0  0  0  0  0  0  0  0
   -1.2909    1.9759   -0.0874 C   0  0  0  1  0  0  0  0  0  0  0  0
   -3.1431    2.5712   -1.4970 O   0  0  0  1  0  0  0  0  0  0  0  0
   -3.3545    0.6715   -0.4155 N   0  0  0  1  0  0  0  0  0  0  0  0
   -0.7057    3.1874   -1.7136 H   0  0  0  1  0  0  0  0  0  0  0  0
    1.0200    2.5176   -0.8374 C   0  0  0  1  0  0  0  0  0  0  0  0
   -4.6715    0.4069   -0.9754 C   0  0  0  1  0  0  0  0  0  0  0  0
    1.9215    3.3729   -1.6828 C   0  0  0  1  0  0  0  0  0  0  0  0
    1.4521    1.7192   -0.0260 O   0  0  0  1  0  0  0  0  0  0  0  0
   -2.9657    0.0216    0.2064 H   0  0  0  1  0  0  0  0  0  0  0  0
   -4.6972    0.7289   -1.9955 H   0  0  0  1  0  0  0  0  0  0  0  0
   -5.4108    0.9397   -0.4147 H   0  0  0  1  0  0  0  0  0  0  0  0
   -4.8747   -0.6426   -0.9278 H   0  0  0  1  0  0  0  0  0  0  0  0
    1.4029    4.2639   -1.9693 H   0  0  0  1  0  0  0  0  0  0  0  0
    2.2088    2.8303   -2.5591 H   0  0  0  1  0  0  0  0  0  0  0  0
    2.7945    3.6335   -1.1217 H   0  0  0  1  0  0  0  0  0  0  0  0
   -1.3996    2.7498    1.2163 C   0  0  0  1  0  0  0  0  0  0  0  0
   -1.9216    4.1594    1.0279 C   0  0  0  1  0  0  0  0  0  0  0  0
   -1.0437    5.1902    0.7307 C   0  0  0  1  0  0  0  0  0  0  0  0
   -1.5200    6.4770    0.5642 C   0  0  0  1  0  0  0  0  0  0  0  0
   -2.8761    6.7358    0.6891 C   0  0  0  1  0  0  0  0  0  0  0  0
   -3.7512    5.7079    0.9854 C   0  0  0  1  0  0  0  0  0  0  0  0
   -3.2737    4.4173    1.1524 C   0  0  0  1  0  0  0  0  0  0  0  0
   -3.3193    8.0048    0.5161 O   0  0  0  1  0  0  0  0  0  0  0  0
   -0.5681    7.3996    0.2823 O   0  0  0  1  0  0  0  0  0  0  0  0
   -0.4286    2.8030    1.6627 H   0  0  0  1  0  0  0  0  0  0  0  0
   -2.0648    2.2248    1.8696 H   0  0  0  1  0  0  0  0  0  0  0  0
   -0.0268    4.9954    0.6330 H   0  0  0  1  0  0  0  0  0  0  0  0
   -4.7681    5.9028    1.0831 H   0  0  0  1  0  0  0  0  0  0  0  0
   -3.9328    3.6432    1.3714 H   0  0  0  1  0  0  0  0  0  0  0  0
   -4.1242    8.1349    1.0227 H   0  0  0  1  0  0  0  0  0  0  0  0
    0.0458    7.4616    1.0177 H   0  0  0  1  0  0  0  0  0  0  0  0
  1  4  1  0  0  0  0
  2  4  1  0  0  0  0
  2  5  2  0  0  0  0
  2  6  1  0  0  0  0
  3  4  1  0  0  0  0
  3  7  1  0  0  0  0
  3  8  1  0  0  0  0
  4 19  1  0  0  0  0
  6  9  1  0  0  0  0
  6 12  1  0  0  0  0
  8 10  1  0  0  0  0
  8 11  2  0  0  0  0
  9 13  1  0  0  0  0
  9 14  1  0  0  0  0
  9 15  1  0  0  0  0
 10 16  1  0  0  0  0
 10 17  1  0  0  0  0
 10 18  1  0  0  0  0
 19 20  1  0  0  0  0
 19 28  1  0  0  0  0
 19 29  1  0  0  0  0
 20 21  4  0  0  0  0
 20 25  4  0  0  0  0
 21 22  4  0  0  0  0
 21 30  1  0  0  0  0
 22 23  4  0  0  0  0
 22 27  1  0  0  0  0
 23 24  4  0  0  0  0
 23 26  1  0  0  0  0
 24 25  4  0  0  0  0
 24 31  1  0  0  0  0
 25 32  1  0  0  0  0
 26 33  1  0  0  0  0
 27 34  1  0  0  0  0
M  END
> <BCLConfClusterSize>
1

> <ConfClashScore>
0 

> <ConfOneFourInteractionScore>
-0.980789 

> <ConfScore>
-0.0730948 

> <ConfScorePBest>
0.00546993 

> <ConfTolerance>
0.364358 

> <RosettaParamsInstructions>
M  ROOT 3
M  POLY_N_BB 3
M  POLY_CA_BB 4
M  POLY_C_BB 2
M  POLY_O_BB 5
M  POLY_IGNORE 9 10 11 12 13 14 15 16 17 18 
M  POLY_UPPER 6
M  POLY_LOWER 8
M  POLY_CHG 0
M  POLY_PROPERTIES ALPHA_AA L_AA PROTEIN AROMATIC POLYMER 
M  END

$$$$



 34 34  0  0  0  0  0  0  0  0999 V2000
   -0.0989    2.7431   -0.5019 H   0  0  0  1  0  0  0  0  0  0  0  0
   -0.3719    0.7089   -0.0081 C   0  0  0  1  0  0  0  0  0  0  0  0
   -1.9242    2.1203   -1.2472 N   0  0  0  1  0  0  0  0  0  0  0  0
   -0.9104    2.1129   -0.2032 C   0  0  0  1  0  0  0  0  0  0  0  0
    0.3316    0.4329    0.9601 O   0  0  0  1  0  0  0  0  0  0  0  0
   -0.6869   -0.2207   -0.9239 N   0  0  0  1  0  0  0  0  0  0  0  0
   -2.8606    1.9736   -0.9982 H   0  0  0  1  0  0  0  0  0  0  0  0
   -1.6227    2.3202   -2.5334 C   0  0  0  1  0  0  0  0  0  0  0  0
   -0.2581   -1.6107   -0.8593 C   0  0  0  1  0  0  0  0  0  0  0  0
   -2.8004    2.3591   -3.4877 C   0  0  0  1  0  0  0  0  0  0  0  0
   -0.4714    2.4653   -2.9356 O   0  0  0  1  0  0  0  0  0  0  0  0
   -1.2408    0.0536   -1.6844 H   0  0  0  1  0  0  0  0  0  0  0  0
   -0.2771   -1.9434    0.1575 H   0  0  0  1  0  0  0  0  0  0  0  0
    0.7371   -1.6949   -1.2433 H   0  0  0  1  0  0  0  0  0  0  0  0
   -0.9191   -2.2152   -1.4445 H   0  0  0  1  0  0  0  0  0  0  0  0
   -3.0163    1.3683   -3.8291 H   0  0  0  1  0  0  0  0  0  0  0  0
   -2.5602    2.9803   -4.3251 H   0  0  0  1  0  0  0  0  0  0  0  0
   -3.6558    2.7561   -2.9821 H   0  0  0  1  0  0  0  0  0  0  0  0
   -1.4752    2.6602    1.1116 C   0  0  0  1  0  0  0  0  0  0  0  0
   -1.9380    4.0887    1.0052 C   0  0  0  1  0  0  0  0  0  0  0  0
   -1.0238    5.0961    0.7391 C   0  0  0  1  0  0  0  0  0  0  0  0
   -1.4487    6.4080    0.6468 C   0  0  0  1  0  0  0  0  0  0  0  0
   -2.7898    6.7158    0.8151 C   0  0  0  1  0  0  0  0  0  0  0  0
   -3.7012    5.7113    1.0805 C   0  0  0  1  0  0  0  0  0  0  0  0
   -3.2752    4.3954    1.1730 C   0  0  0  1  0  0  0  0  0  0  0  0
   -3.1338    8.0221    0.7056 O   0  0  0  1  0  0  0  0  0  0  0  0
   -0.5351    7.3758    0.3910 O   0  0  0  1  0  0  0  0  0  0  0  0
   -0.7120    2.6043    1.8595 H   0  0  0  1  0  0  0  0  0  0  0  0
   -2.3068    2.0536    1.4038 H   0  0  0  1  0  0  0  0  0  0  0  0
   -0.0182    4.8647    0.6088 H   0  0  0  1  0  0  0  0  0  0  0  0
   -4.7067    5.9427    1.2107 H   0  0  0  1  0  0  0  0  0  0  0  0
   -3.9617    3.6391    1.3687 H   0  0  0  1  0  0  0  0  0  0  0  0
   -3.9969    8.0926    0.2913 H   0  0  0  1  0  0  0  0  0  0  0  0
   -0.4750    7.9671    1.1449 H   0  0  0  1  0  0  0  0  0  0  0  0
  1  4  1  0  0  0  0
  2  4  1  0  0  0  0
  2  5  2  0  0  0  0
  2  6  1  0  0  0  0
  3  4  1  0  0  0  0
  3  7  1  0  0  0  0
  3  8  1  0  0  0  0
  4 19  1  0  0  0  0
  6  9  1  0  0  0  0
  6 12  1  0  0  0  0
  8 10  1  0  0  0  0
  8 11  2  0  0  0  0
  9 13  1  0  0  0  0
  9 14  1  0  0  0  0
  9 15  1  0  0  0  0
 10 16  1  0  0  0  0
 10 17  1  0  0  0  0
 10 18  1  0  0  0  0
 19 20  1  0  0  0  0
 19 28  1  0  0  0  0
 19 29  1  0  0  0  0
 20 21  4  0  0  0  0
 20 25  4  0  0  0  0
 21 22  4  0  0  0  0
 21 30  1  0  0  0  0
 22 23  4  0  0  0  0
 22 27  1  0  0  0  0
 23 24  4  0  0  0  0
 23 26  1  0  0  0  0
 24 25  4  0  0  0  0
 24 31  1  0  0  0  0
 25 32  1  0  0  0  0
 26 33  1  0  0  0  0
 27 34  1  0  0  0  0
M  END
> <BCLConfClusterSize>
1

> <ConfClashScore>
0 

> <ConfOneFourInteractionScore>
-0.94165 

> <ConfScore>
-0.0710457 

> <ConfScorePBest>
0.00544145 

> <ConfTolerance>
0.359089 

> <RosettaParamsInstructions>
M  ROOT 3
M  POLY_N_BB 3
M  POLY_CA_BB 4
M  POLY_C_BB 2
M  POLY_O_BB 5
M  POLY_IGNORE 9 10 11 12 13 14 15 16 17 18 
M  POLY_UPPER 6
M  POLY_LOWER 8
M  POLY_CHG 0
M  POLY_PROPERTIES ALPHA_AA L_AA PROTEIN AROMATIC POLYMER 
M  END

$$$$



 34 34  0  0  0  0  0  0  0  0999 V2000
    0.1636    3.0580   -0.2930 H   0  0  0  1  0  0  0  0  0  0  0  0
    0.2319    1.0258    0.2818 C   0  0  0  1  0  0  0  0  0  0  0  0
   -1.3073    2.0783   -1.3522 N   0  0  0  1  0  0  0  0  0  0  0  0
   -0.5476    2.2760   -0.1268 C   0  0  0  1  0  0  0  0  0  0  0  0
   -0.2562   -0.0916    0.1180 O   0  0  0  1  0  0  0  0  0  0  0  0
    1.4037    1.2126    0.8960 N   0  0  0  1  0  0  0  0  0  0  0  0
   -2.0959    1.4968   -1.3311 H   0  0  0  1  0  0  0  0  0  0  0  0
   -0.9671    2.6619   -2.5049 C   0  0  0  1  0  0  0  0  0  0  0  0
    2.1529    0.1595    1.5651 C   0  0  0  1  0  0  0  0  0  0  0  0
   -1.7357    2.2800   -3.7549 C   0  0  0  1  0  0  0  0  0  0  0  0
   -0.0675    3.4908   -2.6138 O   0  0  0  1  0  0  0  0  0  0  0  0
    1.7827    2.1163    0.8960 H   0  0  0  1  0  0  0  0  0  0  0  0
    1.6103   -0.7605    1.5015 H   0  0  0  1  0  0  0  0  0  0  0  0
    2.2933    0.4202    2.5933 H   0  0  0  1  0  0  0  0  0  0  0  0
    3.1059    0.0446    1.0923 H   0  0  0  1  0  0  0  0  0  0  0  0
   -1.7027    3.0882   -4.4554 H   0  0  0  1  0  0  0  0  0  0  0  0
   -2.7535    2.0724   -3.4981 H   0  0  0  1  0  0  0  0  0  0  0  0
   -1.2934    1.4100   -4.1935 H   0  0  0  1  0  0  0  0  0  0  0  0
   -1.4287    2.7020    1.0361 C   0  0  0  1  0  0  0  0  0  0  0  0
   -1.9353    4.1182    0.9768 C   0  0  0  1  0  0  0  0  0  0  0  0
   -1.0557    5.1595    0.7241 C   0  0  0  1  0  0  0  0  0  0  0  0
   -1.5207    6.4601    0.6751 C   0  0  0  1  0  0  0  0  0  0  0  0
   -2.8672    6.7229    0.8733 C   0  0  0  1  0  0  0  0  0  0  0  0
   -3.7440    5.6847    1.1252 C   0  0  0  1  0  0  0  0  0  0  0  0
   -3.2779    4.3801    1.1744 C   0  0  0  1  0  0  0  0  0  0  0  0
   -3.2996    8.0060    0.8151 O   0  0  0  1  0  0  0  0  0  0  0  0
   -0.6030    7.4265    0.4288 O   0  0  0  1  0  0  0  0  0  0  0  0
   -0.8624    2.5914    1.9371 H   0  0  0  1  0  0  0  0  0  0  0  0
   -2.2761    2.0492    1.0645 H   0  0  0  1  0  0  0  0  0  0  0  0
   -0.0461    4.9620    0.5714 H   0  0  0  1  0  0  0  0  0  0  0  0
   -4.7536    5.8822    1.2779 H   0  0  0  1  0  0  0  0  0  0  0  0
   -3.9384    3.5985    1.3600 H   0  0  0  1  0  0  0  0  0  0  0  0
   -3.7805    8.1454   -0.0040 H   0  0  0  1  0  0  0  0  0  0  0  0
   -0.2283    7.7315    1.2584 H   0  0  0  1  0  0  0  0  0  0  0  0
  1  4  1  0  0  0  0
  2  4  1  0  0  0  0
  2  5  2  0  0  0  0
  2  6  1  0  0  0  0
  3  4  1  0  0  0  0
  3  7  1  0  0  0  0
  3  8  1  0  0  0  0
  4 19  1  0  0  0  0
  6  9  1  0  0  0  0
  6 12  1  0  0  0  0
  8 10  1  0  0  0  0
  8 11  2  0  0  0  0
  9 13  1  0  0  0  0
  9 14  1  0  0  0  0
  9 15  1  0  0  0  0
 10 16  1  0  0  0  0
 10 17  1  0  0  0  0
 10 18  1  0  0  0  0
 19 20  1  0  0  0  0
 19 28  1  0  0  0  0
 19 29  1  0  0  0  0
 20 21  4  0  0  0  0
 20 25  4  0  0  0  0
 21 22  4  0  0  0  0
 21 30  1  0  0  0  0
 22 23  4  0  0  0  0
 22 27  1  0  0  0  0
 23 24  4  0  0  0  0
 23 26  1  0  0  0  0
 24 25  4  0  0  0  0
 24 31  1  0  0  0  0
 25 32  1  0  0  0  0
 26 33  1  0  0  0  0
 27 34  1  0  0  0  0
M  END
> <BCLConfClusterSize>
1

> <ConfClashScore>
0 

> <ConfOneFourInteractionScore>
-0.985807 

> <ConfScore>
-0.0708119 

> <ConfScorePBest>
0.00541297 

> <ConfTolerance>
0.514814 

> <RosettaParamsInstructions>
M  ROOT 3
M  POLY_N_BB 3
M  POLY_CA_BB 4
M  POLY_C_BB 2
M  POLY_O_BB 5
M  POLY_IGNORE 9 10 11 12 13 14 15 16 17 18 
M  POLY_UPPER 6
M  POLY_LOWER 8
M  POLY_CHG 0
M  POLY_PROPERTIES ALPHA_AA L_AA PROTEIN AROMATIC POLYMER 
M  END

$$$$



 34 34  0  0  0  0  0  0  0  0999 V2000
   -1.4629    2.1991   -0.7495 H   0  0  0  1  0  0  0  0  0  0  0  0
    0.5026    2.8253   -0.3139 C   0  0  0  1  0  0  0  0  0  0  0  0
   -0.5591    0.6632    0.2796 N   0  0  0  1  0  0  0  0  0  0  0  0
   -0.7773    2.0858    0.0642 C   0  0  0  1  0  0  0  0  0  0  0  0
    0.4885    3.7536   -1.1180 O   0  0  0  1  0  0  0  0  0  0  0  0
    1.6184    2.3968    0.2829 N   0  0  0  1  0  0  0  0  0  0  0  0
   -0.8283    0.2676    1.1348 H   0  0  0  1  0  0  0  0  0  0  0  0
   -0.0044   -0.1223   -0.6479 C   0  0  0  1  0  0  0  0  0  0  0  0
    2.8831    3.0753    0.0415 C   0  0  0  1  0  0  0  0  0  0  0  0
    0.2556   -1.5627   -0.2259 C   0  0  0  1  0  0  0  0  0  0  0  0
    0.2843    0.2740   -1.7740 O   0  0  0  1  0  0  0  0  0  0  0  0
    1.5853    1.6239    0.8846 H   0  0  0  1  0  0  0  0  0  0  0  0
    2.8256    4.0788    0.4082 H   0  0  0  1  0  0  0  0  0  0  0  0
    3.0843    3.0907   -1.0092 H   0  0  0  1  0  0  0  0  0  0  0  0
    3.6690    2.5551    0.5481 H   0  0  0  1  0  0  0  0  0  0  0  0
   -0.5849   -2.1697   -0.4908 H   0  0  0  1  0  0  0  0  0  0  0  0
    0.4045   -1.6025    0.8329 H   0  0  0  1  0  0  0  0  0  0  0  0
    1.1297   -1.9276   -0.7235 H   0  0  0  1  0  0  0  0  0  0  0  0
   -1.4321    2.7083    1.3000 C   0  0  0  1  0  0  0  0  0  0  0  0
   -1.9296    4.1089    1.0613 C   0  0  0  1  0  0  0  0  0  0  0  0
   -1.0325    5.1217    0.7598 C   0  0  0  1  0  0  0  0  0  0  0  0
   -1.4895    6.4085    0.5460 C   0  0  0  1  0  0  0  0  0  0  0  0
   -2.8454    6.6851    0.6278 C   0  0  0  1  0  0  0  0  0  0  0  0
   -3.7396    5.6752    0.9284 C   0  0  0  1  0  0  0  0  0  0  0  0
   -3.2815    4.3846    1.1428 C   0  0  0  1  0  0  0  0  0  0  0  0
   -3.2693    7.9536    0.4089 O   0  0  0  1  0  0  0  0  0  0  0  0
   -0.5550    7.3477    0.2612 O   0  0  0  1  0  0  0  0  0  0  0  0
   -0.7119    2.7329    2.0910 H   0  0  0  1  0  0  0  0  0  0  0  0
   -2.2610    2.0973    1.5905 H   0  0  0  1  0  0  0  0  0  0  0  0
   -0.0157    4.9134    0.6945 H   0  0  0  1  0  0  0  0  0  0  0  0
   -4.7565    5.8835    0.9937 H   0  0  0  1  0  0  0  0  0  0  0  0
   -3.9549    3.6238    1.3651 H   0  0  0  1  0  0  0  0  0  0  0  0
   -3.7639    8.2623    1.1716 H   0  0  0  1  0  0  0  0  0  0  0  0
   -0.4138    7.9031    1.0313 H   0  0  0  1  0  0  0  0  0  0  0  0
  1  4  1  0  0  0  0
  2  4  1  0  0  0  0
  2  5  2  0  0  0  0
  2  6  1  0  0  0  0
  3  4  1  0  0  0  0
  3  7  1  0  0  0  0
  3  8  1  0  0  0  0
  4 19  1  0  0  0  0
  6  9  1  0  0  0  0
  6 12  1  0  0  0  0
  8 10  1  0  0  0  0
  8 11  2  0  0  0  0
  9 13  1  0  0  0  0
  9 14  1  0  0  0  0
  9 15  1  0  0  0  0
 10 16  1  0  0  0  0
 10 17  1  0  0  0  0
 10 18  1  0  0  0  0
 19 20  1  0  0  0  0
 19 28  1  0  0  0  0
 19 29  1  0  0  0  0
 20 21  4  0  0  0  0
 20 25  4  0  0  0  0
 21 22  4  0  0  0  0
 21 30  1  0  0  0  0
 22 23  4  0  0  0  0
 22 27  1  0  0  0  0
 23 24  4  0  0  0  0
 23 26  1  0  0  0  0
 24 25  4  0  0  0  0
 24 31  1  0  0  0  0
 25 32  1  0  0  0  0
 26 33  1  0  0  0  0
 27 34  1  0  0  0  0
M  END
> <BCLConfClusterSize>
1

> <ConfClashScore>
0 

> <ConfOneFourInteractionScore>
-0.960318 

> <ConfScore>
-0.0692091 

> <ConfScorePBest>
0.00538449 

> <ConfTolerance>
0.57365 

> <RosettaParamsInstructions>
M  ROOT 3
M  POLY_N_BB 3
M  POLY_CA_BB 4
M  POLY_C_BB 2
M  POLY_O_BB 5
M  POLY_IGNORE 9 10 11 12 13 14 15 16 17 18 
M  POLY_UPPER 6
M  POLY_LOWER 8
M  POLY_CHG 0
M  POLY_PROPERTIES ALPHA_AA L_AA PROTEIN AROMATIC POLYMER 
M  END

$$$$



 34 34  0  0  0  0  0  0  0  0999 V2000
   -1.1397    2.5724    3.1003 H   0  0  0  1  0  0  0  0  0  0  0  0
   -3.0692    1.8441    2.6995 C   0  0  0  1  0  0  0  0  0  0  0  0
   -0.9217    0.6744    2.3390 N   0  0  0  1  0  0  0  0  0  0  0  0
   -1.5981    1.9615    2.3510 C   0  0  0  1  0  0  0  0  0  0  0  0
   -3.5951    2.6085    3.4916 O   0  0  0  1  0  0  0  0  0  0  0  0
   -3.7373    0.8559    2.0838 N   0  0  0  1  0  0  0  0  0  0  0  0
   -0.4510    0.3950    1.5261 H   0  0  0  1  0  0  0  0  0  0  0  0
   -0.9194   -0.1440    3.4022 C   0  0  0  1  0  0  0  0  0  0  0  0
   -5.1071    0.5091    2.4318 C   0  0  0  1  0  0  0  0  0  0  0  0
   -0.0936   -1.4077    3.2590 C   0  0  0  1  0  0  0  0  0  0  0  0
   -1.5412    0.0986    4.4357 O   0  0  0  1  0  0  0  0  0  0  0  0
   -3.2869    0.3503    1.3753 H   0  0  0  1  0  0  0  0  0  0  0  0
   -5.2682   -0.5334    2.2528 H   0  0  0  1  0  0  0  0  0  0  0  0
   -5.7832    1.0823    1.8324 H   0  0  0  1  0  0  0  0  0  0  0  0
   -5.2772    0.7235    3.4663 H   0  0  0  1  0  0  0  0  0  0  0  0
   -0.4415   -1.9680    2.4164 H   0  0  0  1  0  0  0  0  0  0  0  0
   -0.1909   -1.9993    4.1452 H   0  0  0  1  0  0  0  0  0  0  0  0
    0.9341   -1.1474    3.1143 H   0  0  0  1  0  0  0  0  0  0  0  0
   -1.4020    2.6693    1.0067 C   0  0  0  1  0  0  0  0  0  0  0  0
   -1.9394    4.0754    0.9967 C   0  0  0  1  0  0  0  0  0  0  0  0
   -1.0667    5.1511    0.9432 C   0  0  0  1  0  0  0  0  0  0  0  0
   -1.5607    6.4420    0.9394 C   0  0  0  1  0  0  0  0  0  0  0  0
   -2.9287    6.6609    0.9836 C   0  0  0  1  0  0  0  0  0  0  0  0
   -3.7987    5.5882    1.0369 C   0  0  0  1  0  0  0  0  0  0  0  0
   -3.3035    4.2935    1.0407 C   0  0  0  1  0  0  0  0  0  0  0  0
   -3.3402    7.9521    0.9715 O   0  0  0  1  0  0  0  0  0  0  0  0
   -0.7476    7.5252    0.8933 O   0  0  0  1  0  0  0  0  0  0  0  0
   -1.9059    2.1067    0.2488 H   0  0  0  1  0  0  0  0  0  0  0  0
   -0.3548    2.7034    0.7894 H   0  0  0  1  0  0  0  0  0  0  0  0
   -0.0404    4.9869    0.9060 H   0  0  0  1  0  0  0  0  0  0  0  0
   -4.8249    5.7525    1.0742 H   0  0  0  1  0  0  0  0  0  0  0  0
   -3.9583    3.4864    1.0768 H   0  0  0  1  0  0  0  0  0  0  0  0
   -2.7662    8.4660    0.3987 H   0  0  0  1  0  0  0  0  0  0  0  0
   -0.8021    7.9301    0.0246 H   0  0  0  1  0  0  0  0  0  0  0  0
  1  4  1  0  0  0  0
  2  4  1  0  0  0  0
  2  5  2  0  0  0  0
  2  6  1  0  0  0  0
  3  4  1  0  0  0  0
  3  7  1  0  0  0  0
  3  8  1  0  0  0  0
  4 19  1  0  0  0  0
  6  9  1  0  0  0  0
  6 12  1  0  0  0  0
  8 10  1  0  0  0  0
  8 11  2  0  0  0  0
  9 13  1  0  0  0  0
  9 14  1  0  0  0  0
  9 15  1  0  0  0  0
 10 16  1  0  0  0  0
 10 17  1  0  0  0  0
 10 18  1  0  0  0  0
 19 20  1  0  0  0  0
 19 28  1  0  0  0  0
 19 29  1  0  0  0  0
 20 21  4  0  0  0  0
 20 25  4  0  0  0  0
 21 22  4  0  0  0  0
 21 30  1  0  0  0  0
 22 23  4  0  0  0  0
 22 27  1  0  0  0  0
 23 24  4  0  0  0  0
 23 26  1  0  0  0  0
 24 25  4  0  0  0  0
 24 31  1  0  0  0  0
 25 32  1  0  0  0  0
 26 33  1  0  0  0  0
 27 34  1  0  0  0  0
M  END
> <BCLConfClusterSize>
1

> <ConfClashScore>
0 

> <ConfOneFourInteractionScore>
-0.960318 

> <ConfScore>
-0.0685352 

> <ConfScorePBest>
0.00535601 

> <ConfTolerance>
0.428209 

> <RosettaParamsInstructions>
M  ROOT 3
M  POLY_N_BB 3
M  POLY_CA_BB 4
M  POLY_C_BB 2
M  POLY_O_BB 5
M  POLY_IGNORE 9 10 11 12 13 14 15 16 17 18 
M  POLY_UPPER 6
M  POLY_LOWER 8
M  POLY_CHG 0
M  POLY_PROPERTIES ALPHA_AA L_AA PROTEIN AROMATIC POLYMER 
M  END

$$$$



 34 34  0  0  0  0  0  0  0  0999 V2000
   -0.5314    1.1901    2.3189 H   0  0  0  1  0  0  0  0  0  0  0  0
   -0.0829    3.1254    3.0841 C   0  0  0  1  0  0  0  0  0  0  0  0
   -2.2042    1.9751    3.2749 N   0  0  0  1  0  0  0  0  0  0  0  0
   -1.0313    2.1299    2.4275 C   0  0  0  1  0  0  0  0  0  0  0  0
    1.1371    2.9975    2.9967 O   0  0  0  1  0  0  0  0  0  0  0  0
   -0.6635    4.1283    3.7490 N   0  0  0  1  0  0  0  0  0  0  0  0
   -3.0994    2.1144    2.9012 H   0  0  0  1  0  0  0  0  0  0  0  0
   -2.0618    1.6401    4.5741 C   0  0  0  1  0  0  0  0  0  0  0  0
    0.0635    5.2196    4.3802 C   0  0  0  1  0  0  0  0  0  0  0  0
   -3.3166    1.3824    5.3855 C   0  0  0  1  0  0  0  0  0  0  0  0
   -0.9479    1.5458    5.0877 O   0  0  0  1  0  0  0  0  0  0  0  0
   -1.6413    4.1291    3.8160 H   0  0  0  1  0  0  0  0  0  0  0  0
    0.9125    5.4764    3.7819 H   0  0  0  1  0  0  0  0  0  0  0  0
    0.3914    4.9143    5.3519 H   0  0  0  1  0  0  0  0  0  0  0  0
   -0.5790    6.0703    4.4711 H   0  0  0  1  0  0  0  0  0  0  0  0
   -3.8218    0.5222    4.9985 H   0  0  0  1  0  0  0  0  0  0  0  0
   -3.9625    2.2332    5.3229 H   0  0  0  1  0  0  0  0  0  0  0  0
   -3.0510    1.2100    6.4075 H   0  0  0  1  0  0  0  0  0  0  0  0
   -1.4731    2.6158    1.0567 C   0  0  0  1  0  0  0  0  0  0  0  0
   -1.9446    4.0442    0.9995 C   0  0  0  1  0  0  0  0  0  0  0  0
   -1.0302    5.0696    0.8145 C   0  0  0  1  0  0  0  0  0  0  0  0
   -1.4632    6.3813    0.7675 C   0  0  0  1  0  0  0  0  0  0  0  0
   -2.8122    6.6712    0.8999 C   0  0  0  1  0  0  0  0  0  0  0  0
   -3.7237    5.6488    1.0844 C   0  0  0  1  0  0  0  0  0  0  0  0
   -3.2897    4.3332    1.1316 C   0  0  0  1  0  0  0  0  0  0  0  0
   -3.2126    7.9648    0.8451 O   0  0  0  1  0  0  0  0  0  0  0  0
   -0.6437    7.4469    0.5958 O   0  0  0  1  0  0  0  0  0  0  0  0
   -2.2761    1.9898    0.7276 H   0  0  0  1  0  0  0  0  0  0  0  0
   -0.6442    2.5147    0.3877 H   0  0  0  1  0  0  0  0  0  0  0  0
   -0.0185    4.8518    0.7112 H   0  0  0  1  0  0  0  0  0  0  0  0
   -4.7354    5.8666    1.1877 H   0  0  0  1  0  0  0  0  0  0  0  0
   -3.9761    3.5636    1.2664 H   0  0  0  1  0  0  0  0  0  0  0  0
   -3.1089    8.2946   -0.0505 H   0  0  0  1  0  0  0  0  0  0  0  0
   -1.0475    8.2273    0.9826 H   0  0  0  1  0  0  0  0  0  0  0  0
  1  4  1  0  0  0  0
  2  4  1  0  0  0  0
  2  5  2  0  0  0  0
  2  6  1  0  0  0  0
  3  4  1  0  0  0  0
  3  7  1  0  0  0  0
  3  8  1  0  0  0  0
  4 19  1  0  0  0  0
  6  9  1  0  0  0  0
  6 12  1  0  0  0  0
  8 10  1  0  0  0  0
  8 11  2  0  0  0  0
  9 13  1  0  0  0  0
  9 14  1  0  0  0  0
  9 15  1  0  0  0  0
 10 16  1  0  0  0  0
 10 17  1  0  0  0  0
 10 18  1  0  0  0  0
 19 20  1  0  0  0  0
 19 28  1  0  0  0  0
 19 29  1  0  0  0  0
 20 21  4  0  0  0  0
 20 25  4  0  0  0  0
 21 22  4  0  0  0  0
 21 30  1  0  0  0  0
 22 23  4  0  0  0  0
 22 27  1  0  0  0  0
 23 24  4  0  0  0  0
 23 26  1  0  0  0  0
 24 25  4  0  0  0  0
 24 31  1  0  0  0  0
 25 32  1  0  0  0  0
 26 33  1  0  0  0  0
 27 34  1  0  0  0  0
M  END
> <BCLConfClusterSize>
1

> <ConfClashScore>
0 

> <ConfOneFourInteractionScore>
-0.957074 

> <ConfScore>
-0.0647258 

> <ConfScorePBest>
0.00532753 

> <ConfTolerance>
0.298737 

> <RosettaParamsInstructions>
M  ROOT 3
M  POLY_N_BB 3
M  POLY_CA_BB 4
M  POLY_C_BB 2
M  POLY_O_BB 5
M  POLY_IGNORE 9 10 11 12 13 14 15 16 17 18 
M  POLY_UPPER 6
M  POLY_LOWER 8
M  POLY_CHG 0
M  POLY_PROPERTIES ALPHA_AA L_AA PROTEIN AROMATIC POLYMER 
M  END

$$$$



 34 34  0  0  0  0  0  0  0  0999 V2000
   -0.1479    3.1322    2.9169 H   0  0  0  1  0  0  0  0  0  0  0  0
   -2.0172    2.5872    3.7512 C   0  0  0  1  0  0  0  0  0  0  0  0
   -0.3468    1.0770    2.8001 N   0  0  0  1  0  0  0  0  0  0  0  0
   -0.9142    2.4142    2.7113 C   0  0  0  1  0  0  0  0  0  0  0  0
   -3.0641    1.9467    3.6728 O   0  0  0  1  0  0  0  0  0  0  0  0
   -1.8091    3.4623    4.7569 N   0  0  0  1  0  0  0  0  0  0  0  0
   -0.9425    0.3037    2.7124 H   0  0  0  1  0  0  0  0  0  0  0  0
    0.9991    0.8602    3.0035 C   0  0  0  1  0  0  0  0  0  0  0  0
   -2.8069    3.6226    5.8041 C   0  0  0  1  0  0  0  0  0  0  0  0
    1.4177   -0.5735    3.1521 C   0  0  0  1  0  0  0  0  0  0  0  0
    1.7679    1.8017    3.0531 O   0  0  0  1  0  0  0  0  0  0  0  0
   -0.9844    3.9910    4.7822 H   0  0  0  1  0  0  0  0  0  0  0  0
   -3.7859    3.5349    5.3811 H   0  0  0  1  0  0  0  0  0  0  0  0
   -2.6986    4.5869    6.2550 H   0  0  0  1  0  0  0  0  0  0  0  0
   -2.6699    2.8639    6.5461 H   0  0  0  1  0  0  0  0  0  0  0  0
    1.1785   -1.1099    2.2577 H   0  0  0  1  0  0  0  0  0  0  0  0
    0.9004   -1.0119    3.9798 H   0  0  0  1  0  0  0  0  0  0  0  0
    2.4726   -0.6207    3.3247 H   0  0  0  1  0  0  0  0  0  0  0  0
   -1.4496    2.6848    1.3148 C   0  0  0  1  0  0  0  0  0  0  0  0
   -1.9332    4.0878    1.0704 C   0  0  0  1  0  0  0  0  0  0  0  0
   -1.0246    5.0945    0.7833 C   0  0  0  1  0  0  0  0  0  0  0  0
   -1.4693    6.3847    0.5641 C   0  0  0  1  0  0  0  0  0  0  0  0
   -2.8241    6.6709    0.6261 C   0  0  0  1  0  0  0  0  0  0  0  0
   -3.7299    5.6670    0.9124 C   0  0  0  1  0  0  0  0  0  0  0  0
   -3.2842    4.3730    1.1323 C   0  0  0  1  0  0  0  0  0  0  0  0
   -3.2358    7.9426    0.4023 O   0  0  0  1  0  0  0  0  0  0  0  0
   -0.5611    7.3526    0.2903 O   0  0  0  1  0  0  0  0  0  0  0  0
   -2.2684    2.0184    1.1404 H   0  0  0  1  0  0  0  0  0  0  0  0
   -0.6665    2.4791    0.6154 H   0  0  0  1  0  0  0  0  0  0  0  0
   -0.0084    4.8790    0.7328 H   0  0  0  1  0  0  0  0  0  0  0  0
   -4.7461    5.8825    0.9629 H   0  0  0  1  0  0  0  0  0  0  0  0
   -3.9662    3.6169    1.3438 H   0  0  0  1  0  0  0  0  0  0  0  0
   -3.6261    8.2988    1.2037 H   0  0  0  1  0  0  0  0  0  0  0  0
   -0.6205    8.0445    0.9532 H   0  0  0  1  0  0  0  0  0  0  0  0
  1  4  1  0  0  0  0
  2  4  1  0  0  0  0
  2  5  2  0  0  0  0
  2  6  1  0  0  0  0
  3  4  1  0  0  0  0
  3  7  1  0  0  0  0
  3  8  1  0  0  0  0
  4 19  1  0  0  0  0
  6  9  1  0  0  0  0
  6 12  1  0  0  0  0
  8 10  1  0  0  0  0
  8 11  2  0  0  0  0
  9 13  1  0  0  0  0
  9 14  1  0  0  0  0
  9 15  1  0  0  0  0
 10 16  1  0  0  0  0
 10 17  1  0  0  0  0
 10 18  1  0  0  0  0
 19 20  1  0  0  0  0
 19 28  1  0  0  0  0
 19 29  1  0  0  0  0
 20 21  4  0  0  0  0
 20 25  4  0  0  0  0
 21 22  4  0  0  0  0
 21 30  1  0  0  0  0
 22 23  4  0  0  0  0
 22 27  1  0  0  0  0
 23 24  4  0  0  0  0
 23 26  1  0  0  0  0
 24 25  4  0  0  0  0
 24 31  1  0  0  0  0
 25 32  1  0  0  0  0
 26 33  1  0  0  0  0
 27 34  1  0  0  0  0
M  END
> <BCLConfClusterSize>
1

> <ConfClashScore>
0 

> <ConfOneFourInteractionScore>
-0.98383 

> <ConfScore>
-0.0638332 

> <ConfScorePBest>
0.00529905 

> <ConfTolerance>
0.260667 

> <RosettaParamsInstructions>
M  ROOT 3
M  POLY_N_BB 3
M  POLY_CA_BB 4
M  POLY_C_BB 2
M  POLY_O_BB 5
M  POLY_IGNORE 9 10 11 12 13 14 15 16 17 18 
M  POLY_UPPER 6
M  POLY_LOWER 8
M  POLY_CHG 0
M  POLY_PROPERTIES ALPHA_AA L_AA PROTEIN AROMATIC POLYMER 
M  END

$$$$



 34 34  0  0  0  0  0  0  0  0999 V2000
   -2.1374    1.7730   -0.4127 H   0  0  0  1  0  0  0  0  0  0  0  0
   -0.2905    2.5898   -0.9910 C   0  0  0  1  0  0  0  0  0  0  0  0
   -0.6713    0.5716    0.3863 N   0  0  0  1  0  0  0  0  0  0  0  0
   -1.1696    1.8912    0.0280 C   0  0  0  1  0  0  0  0  0  0  0  0
    0.8665    2.8987   -0.7184 O   0  0  0  1  0  0  0  0  0  0  0  0
   -0.8145    2.8595   -2.1971 N   0  0  0  1  0  0  0  0  0  0  0  0
    0.1029    0.5045    0.9834 H   0  0  0  1  0  0  0  0  0  0  0  0
   -1.2380   -0.5625   -0.0750 C   0  0  0  1  0  0  0  0  0  0  0  0
   -0.1323    3.5848   -3.2585 C   0  0  0  1  0  0  0  0  0  0  0  0
   -0.5478   -1.8784    0.2273 C   0  0  0  1  0  0  0  0  0  0  0  0
   -2.2822   -0.5327   -0.7209 O   0  0  0  1  0  0  0  0  0  0  0  0
   -1.7249    2.5444   -2.3764 H   0  0  0  1  0  0  0  0  0  0  0  0
    0.6032    4.2342   -2.8318 H   0  0  0  1  0  0  0  0  0  0  0  0
   -0.8439    4.1647   -3.8083 H   0  0  0  1  0  0  0  0  0  0  0  0
    0.3453    2.8886   -3.9159 H   0  0  0  1  0  0  0  0  0  0  0  0
    0.4727   -1.6941    0.4908 H   0  0  0  1  0  0  0  0  0  0  0  0
   -0.5846   -2.5070   -0.6378 H   0  0  0  1  0  0  0  0  0  0  0  0
   -1.0445   -2.3625    1.0420 H   0  0  0  1  0  0  0  0  0  0  0  0
   -1.3431    2.7405    1.2804 C   0  0  0  1  0  0  0  0  0  0  0  0
   -1.9360    4.1059    1.0569 C   0  0  0  1  0  0  0  0  0  0  0  0
   -1.0685    5.1499    0.7754 C   0  0  0  1  0  0  0  0  0  0  0  0
   -1.5642    6.4232    0.5677 C   0  0  0  1  0  0  0  0  0  0  0  0
   -2.9291    6.6554    0.6357 C   0  0  0  1  0  0  0  0  0  0  0  0
   -3.7939    5.6145    0.9164 C   0  0  0  1  0  0  0  0  0  0  0  0
   -3.2969    4.3373    1.1247 C   0  0  0  1  0  0  0  0  0  0  0  0
   -3.5052    7.8667    0.4417 O   0  0  0  1  0  0  0  0  0  0  0  0
   -0.6957    7.4283    0.2992 O   0  0  0  1  0  0  0  0  0  0  0  0
   -0.3800    2.8681    1.7287 H   0  0  0  1  0  0  0  0  0  0  0  0
   -1.9828    2.2090    1.9536 H   0  0  0  1  0  0  0  0  0  0  0  0
   -0.0448    4.9749    0.7204 H   0  0  0  1  0  0  0  0  0  0  0  0
   -4.8176    5.7895    0.9714 H   0  0  0  1  0  0  0  0  0  0  0  0
   -3.9481    3.5533    1.3320 H   0  0  0  1  0  0  0  0  0  0  0  0
   -3.1230    8.5043    1.0491 H   0  0  0  1  0  0  0  0  0  0  0  0
   -0.4131    7.8358    1.1213 H   0  0  0  1  0  0  0  0  0  0  0  0
  1  4  1  0  0  0  0
  2  4  1  0  0  0  0
  2  5  2  0  0  0  0
  2  6  1  0  0  0  0
  3  4  1  0  0  0  0
  3  7  1  0  0  0  0
  3  8  1  0  0  0  0
  4 19  1  0  0  0  0
  6  9  1  0  0  0  0
  6 12  1  0  0  0  0
  8 10  1  0  0  0  0
  8 11  2  0  0  0  0
  9 13  1  0  0  0  0
  9 14  1  0  0  0  0
  9 15  1  0  0  0  0
 10 16  1  0  0  0  0
 10 17  1  0  0  0  0
 10 18  1  0  0  0  0
 19 20  1  0  0  0  0
 19 28  1  0  0  0  0
 19 29  1  0  0  0  0
 20 21  4  0  0  0  0
 20 25  4  0  0  0  0
 21 22  4  0  0  0  0
 21 30  1  0  0  0  0
 22 23  4  0  0  0  0
 22 27  1  0  0  0  0
 23 24  4  0  0  0  0
 23 26  1  0  0  0  0
 24 25  4  0  0  0  0
 24 31  1  0  0  0  0
 25 32  1  0  0  0  0
 26 33  1  0  0  0  0
 27 34  1  0  0  0  0
M  END
> <BCLConfClusterSize>
1

> <ConfClashScore>
0 

> <ConfOneFourInteractionScore>
-0.979134 

> <ConfScore>
-0.0615031 

> <ConfScorePBest>
0.00527057 

> <ConfTolerance>
0.244122 

> <RosettaParamsInstructions>
M  ROOT 3
M  POLY_N_BB 3
M  POLY_CA_BB 4
M  POLY_C_BB 2
M  POLY_O_BB 5
M  POLY_IGNORE 9 10 11 12 13 14 15 16 17 18 
M  POLY_UPPER 6
M  POLY_LOWER 8
M  POLY_CHG 0
M  POLY_PROPERTIES ALPHA_AA L_AA PROTEIN AROMATIC POLYMER 
M  END

$$$$



 34 34  0  0  0  0  0  0  0  0999 V2000
   -2.8796    1.8225    2.1803 H   0  0  0  1  0  0  0  0  0  0  0  0
   -1.2460    0.4871    2.1316 C   0  0  0  1  0  0  0  0  0  0  0  0
   -1.4900    2.4264    3.5865 N   0  0  0  1  0  0  0  0  0  0  0  0
   -1.8157    1.8849    2.2755 C   0  0  0  1  0  0  0  0  0  0  0  0
   -0.3466    0.0855    2.8679 O   0  0  0  1  0  0  0  0  0  0  0  0
   -1.7822   -0.2605    1.1657 N   0  0  0  1  0  0  0  0  0  0  0  0
   -0.7480    3.0617    3.6648 H   0  0  0  1  0  0  0  0  0  0  0  0
   -2.1724    2.0848    4.6952 C   0  0  0  1  0  0  0  0  0  0  0  0
   -1.3018   -1.6004    0.8625 C   0  0  0  1  0  0  0  0  0  0  0  0
   -1.7239    2.6744    6.0182 C   0  0  0  1  0  0  0  0  0  0  0  0
   -3.1305    1.3184    4.6396 O   0  0  0  1  0  0  0  0  0  0  0  0
   -2.5254    0.1052    0.6420 H   0  0  0  1  0  0  0  0  0  0  0  0
   -1.6693   -2.2863    1.5969 H   0  0  0  1  0  0  0  0  0  0  0  0
   -0.2319   -1.6063    0.8732 H   0  0  0  1  0  0  0  0  0  0  0  0
   -1.6510   -1.8937   -0.1054 H   0  0  0  1  0  0  0  0  0  0  0  0
   -0.6741    2.5105    6.1448 H   0  0  0  1  0  0  0  0  0  0  0  0
   -2.2570    2.2033    6.8174 H   0  0  0  1  0  0  0  0  0  0  0  0
   -1.9240    3.7255    6.0262 H   0  0  0  1  0  0  0  0  0  0  0  0
   -1.2993    2.7842    1.1771 C   0  0  0  1  0  0  0  0  0  0  0  0
   -1.9333    4.1525    1.0361 C   0  0  0  1  0  0  0  0  0  0  0  0
   -1.0909    5.2454    0.9037 C   0  0  0  1  0  0  0  0  0  0  0  0
   -1.6214    6.5154    0.7773 C   0  0  0  1  0  0  0  0  0  0  0  0
   -2.9958    6.6957    0.7776 C   0  0  0  1  0  0  0  0  0  0  0  0
   -3.8356    5.6060    0.9096 C   0  0  0  1  0  0  0  0  0  0  0  0
   -3.3037    4.3322    1.0363 C   0  0  0  1  0  0  0  0  0  0  0  0
   -3.4438    7.9678    0.6443 O   0  0  0  1  0  0  0  0  0  0  0  0
   -0.7378    7.5359    0.6574 O   0  0  0  1  0  0  0  0  0  0  0  0
   -1.4391    2.2694    0.2496 H   0  0  0  1  0  0  0  0  0  0  0  0
   -0.2537    2.9321    1.3495 H   0  0  0  1  0  0  0  0  0  0  0  0
   -0.0597    5.1098    0.8995 H   0  0  0  1  0  0  0  0  0  0  0  0
   -4.8667    5.7416    0.9138 H   0  0  0  1  0  0  0  0  0  0  0  0
   -3.9357    3.5118    1.1316 H   0  0  0  1  0  0  0  0  0  0  0  0
   -3.2622    8.4575    1.4498 H   0  0  0  1  0  0  0  0  0  0  0  0
   -0.0934    7.3237   -0.0218 H   0  0  0  1  0  0  0  0  0  0  0  0
  1  4  1  0  0  0  0
  2  4  1  0  0  0  0
  2  5  2  0  0  0  0
  2  6  1  0  0  0  0
  3  4  1  0  0  0  0
  3  7  1  0  0  0  0
  3  8  1  0  0  0  0
  4 19  1  0  0  0  0
  6  9  1  0  0  0  0
  6 12  1  0  0  0  0
  8 10  1  0  0  0  0
  8 11  2  0  0  0  0
  9 13  1  0  0  0  0
  9 14  1  0  0  0  0
  9 15  1  0  0  0  0
 10 16  1  0  0  0  0
 10 17  1  0  0  0  0
 10 18  1  0  0  0  0
 19 20  1  0  0  0  0
 19 28  1  0  0  0  0
 19 29  1  0  0  0  0
 20 21  4  0  0  0  0
 20 25  4  0  0  0  0
 21 22  4  0  0  0  0
 21 30  1  0  0  0  0
 22 23  4  0  0  0  0
 22 27  1  0  0  0  0
 23 24  4  0  0  0  0
 23 26  1  0  0  0  0
 24 25  4  0  0  0  0
 24 31  1  0  0  0  0
 25 32  1  0  0  0  0
 26 33  1  0  0  0  0
 27 34  1  0  0  0  0
M  END
> <BCLConfClusterSize>
1

> <ConfClashScore>
0 

> <ConfOneFourInteractionScore>
-0.985807 

> <ConfScore>
-0.0612817 

> <ConfScorePBest>
0.00524209 

> <ConfTolerance>
0.483888 

> <RosettaParamsInstructions>
M  ROOT 3
M  POLY_N_BB 3
M  POLY_CA_BB 4
M  POLY_C_BB 2
M  POLY_O_BB 5
M  POLY_IGNORE 9 10 11 12 13 14 15 16 17 18 
M  POLY_UPPER 6
M  POLY_LOWER 8
M  POLY_CHG 0
M  POLY_PROPERTIES ALPHA_AA L_AA PROTEIN AROMATIC POLYMER 
M  END

$$$$



 34 34  0  0  0  0  0  0  0  0999 V2000
   -0.6083    1.5048    2.8020 H   0  0  0  1  0  0  0  0  0  0  0  0
    0.3660    3.3689    2.9298 C   0  0  0  1  0  0  0  0  0  0  0  0
   -1.9190    2.8174    3.6981 N   0  0  0  1  0  0  0  0  0  0  0  0
   -0.8869    2.5339    2.7120 C   0  0  0  1  0  0  0  0  0  0  0  0
    0.3311    4.4149    3.5725 O   0  0  0  1  0  0  0  0  0  0  0  0
    1.4905    2.8873    2.3785 N   0  0  0  1  0  0  0  0  0  0  0  0
   -2.0052    3.7200    4.0700 H   0  0  0  1  0  0  0  0  0  0  0  0
   -2.7478    1.8513    4.0969 C   0  0  0  1  0  0  0  0  0  0  0  0
    2.7401    3.6331    2.3839 C   0  0  0  1  0  0  0  0  0  0  0  0
   -3.7329    2.2355    5.1836 C   0  0  0  1  0  0  0  0  0  0  0  0
   -2.7288    0.7153    3.6248 O   0  0  0  1  0  0  0  0  0  0  0  0
    1.4695    2.0026    1.9574 H   0  0  0  1  0  0  0  0  0  0  0  0
    3.5553    2.9628    2.5601 H   0  0  0  1  0  0  0  0  0  0  0  0
    2.7115    4.3708    3.1585 H   0  0  0  1  0  0  0  0  0  0  0  0
    2.8723    4.1140    1.4373 H   0  0  0  1  0  0  0  0  0  0  0  0
   -3.9950    3.2677    5.0795 H   0  0  0  1  0  0  0  0  0  0  0  0
   -3.2858    2.0763    6.1425 H   0  0  0  1  0  0  0  0  0  0  0  0
   -4.6133    1.6336    5.0956 H   0  0  0  1  0  0  0  0  0  0  0  0
   -1.3752    2.7500    1.2856 C   0  0  0  1  0  0  0  0  0  0  0  0
   -1.9247    4.1321    1.0534 C   0  0  0  1  0  0  0  0  0  0  0  0
   -1.0648    5.1819    0.7704 C   0  0  0  1  0  0  0  0  0  0  0  0
   -1.5696    6.4517    0.5626 C   0  0  0  1  0  0  0  0  0  0  0  0
   -2.9360    6.6744    0.6319 C   0  0  0  1  0  0  0  0  0  0  0  0
   -3.7932    5.6276    0.9141 C   0  0  0  1  0  0  0  0  0  0  0  0
   -3.2871    4.3540    1.1225 C   0  0  0  1  0  0  0  0  0  0  0  0
   -3.4431    7.9140    0.4249 O   0  0  0  1  0  0  0  0  0  0  0  0
   -0.7690    7.5102    0.2884 O   0  0  0  1  0  0  0  0  0  0  0  0
   -2.1461    2.0377    1.0779 H   0  0  0  1  0  0  0  0  0  0  0  0
   -0.5545    2.5931    0.6172 H   0  0  0  1  0  0  0  0  0  0  0  0
   -0.0400    5.0141    0.7144 H   0  0  0  1  0  0  0  0  0  0  0  0
   -4.8180    5.7954    0.9700 H   0  0  0  1  0  0  0  0  0  0  0  0
   -3.9326    3.5656    1.3309 H   0  0  0  1  0  0  0  0  0  0  0  0
   -3.4196    8.4111    1.2458 H   0  0  0  1  0  0  0  0  0  0  0  0
   -0.1062    7.5977    0.9774 H   0  0  0  1  0  0  0  0  0  0  0  0
  1  4  1  0  0  0  0
  2  4  1  0  0  0  0
  2  5  2  0  0  0  0
  2  6  1  0  0  0  0
  3  4  1  0  0  0  0
  3  7  1  0  0  0  0
  3  8  1  0  0  0  0
  4 19  1  0  0  0  0
  6  9  1  0  0  0  0
  6 12  1  0  0  0  0
  8 10  1  0  0  0  0
  8 11  2  0  0  0  0
  9 13  1  0  0  0  0
  9 14  1  0  0  0  0
  9 15  1  0  0  0  0
 10 16  1  0  0  0  0
 10 17  1  0  0  0  0
 10 18  1  0  0  0  0
 19 20  1  0  0  0  0
 19 28  1  0  0  0  0
 19 29  1  0  0  0  0
 20 21  4  0  0  0  0
 20 25  4  0  0  0  0
 21 22  4  0  0  0  0
 21 30  1  0  0  0  0
 22 23  4  0  0  0  0
 22 27  1  0  0  0  0
 23 24  4  0  0  0  0
 23 26  1  0  0  0  0
 24 25  4  0  0  0  0
 24 31  1  0  0  0  0
 25 32  1  0  0  0  0
 26 33  1  0  0  0  0
 27 34  1  0  0  0  0
M  END
> <BCLConfClusterSize>
1

> <ConfClashScore>
0 

> <ConfOneFourInteractionScore>
-0.980789 

> <ConfScore>
-0.0599269 

> <ConfScorePBest>
0.00521361 

> <ConfTolerance>
0.331318 

> <RosettaParamsInstructions>
M  ROOT 3
M  POLY_N_BB 3
M  POLY_CA_BB 4
M  POLY_C_BB 2
M  POLY_O_BB 5
M  POLY_IGNORE 9 10 11 12 13 14 15 16 17 18 
M  POLY_UPPER 6
M  POLY_LOWER 8
M  POLY_CHG 0
M  POLY_PROPERTIES ALPHA_AA L_AA PROTEIN AROMATIC POLYMER 
M  END

$$$$



 34 34  0  0  0  0  0  0  0  0999 V2000
   -1.0246    0.8692    0.2180 H   0  0  0  1  0  0  0  0  0  0  0  0
   -2.3228    2.0417   -0.9636 C   0  0  0  1  0  0  0  0  0  0  0  0
    0.0671    2.3965   -0.6483 N   0  0  0  1  0  0  0  0  0  0  0  0
   -1.1478    1.9063   -0.0148 C   0  0  0  1  0  0  0  0  0  0  0  0
   -3.3517    1.3876   -0.8027 O   0  0  0  1  0  0  0  0  0  0  0  0
   -2.1611    2.9061   -1.9666 N   0  0  0  1  0  0  0  0  0  0  0  0
    0.5370    3.1564   -0.2457 H   0  0  0  1  0  0  0  0  0  0  0  0
    0.5643    1.8466   -1.7598 C   0  0  0  1  0  0  0  0  0  0  0  0
   -3.1317    3.0386   -3.0428 C   0  0  0  1  0  0  0  0  0  0  0  0
    1.9139    2.3726   -2.2083 C   0  0  0  1  0  0  0  0  0  0  0  0
   -0.0210    0.9685   -2.3924 O   0  0  0  1  0  0  0  0  0  0  0  0
   -1.3607    3.4715   -1.9792 H   0  0  0  1  0  0  0  0  0  0  0  0
   -4.1023    3.2156   -2.6286 H   0  0  0  1  0  0  0  0  0  0  0  0
   -3.1493    2.1377   -3.6198 H   0  0  0  1  0  0  0  0  0  0  0  0
   -2.8572    3.8599   -3.6712 H   0  0  0  1  0  0  0  0  0  0  0  0
    2.6067    2.3181   -1.3947 H   0  0  0  1  0  0  0  0  0  0  0  0
    1.8131    3.3902   -2.5231 H   0  0  0  1  0  0  0  0  0  0  0  0
    2.2742    1.7805   -3.0235 H   0  0  0  1  0  0  0  0  0  0  0  0
   -1.4231    2.6551    1.2930 C   0  0  0  1  0  0  0  0  0  0  0  0
   -1.9411    4.0617    1.0736 C   0  0  0  1  0  0  0  0  0  0  0  0
   -1.0515    5.1030    0.8594 C   0  0  0  1  0  0  0  0  0  0  0  0
   -1.5247    6.3869    0.6647 C   0  0  0  1  0  0  0  0  0  0  0  0
   -2.8889    6.6325    0.6783 C   0  0  0  1  0  0  0  0  0  0  0  0
   -3.7757    5.5942    0.8919 C   0  0  0  1  0  0  0  0  0  0  0  0
   -3.3014    4.3064    1.0872 C   0  0  0  1  0  0  0  0  0  0  0  0
   -3.2796    7.9142    0.4752 O   0  0  0  1  0  0  0  0  0  0  0  0
   -0.6350    7.3890    0.4625 O   0  0  0  1  0  0  0  0  0  0  0  0
   -0.5123    2.7109    1.8517 H   0  0  0  1  0  0  0  0  0  0  0  0
   -2.1522    2.1070    1.8523 H   0  0  0  1  0  0  0  0  0  0  0  0
   -0.0282    4.9181    0.8452 H   0  0  0  1  0  0  0  0  0  0  0  0
   -4.7990    5.7791    0.9061 H   0  0  0  1  0  0  0  0  0  0  0  0
   -3.9689    3.5245    1.2439 H   0  0  0  1  0  0  0  0  0  0  0  0
   -2.8293    8.4891    1.0983 H   0  0  0  1  0  0  0  0  0  0  0  0
   -1.0328    8.2261    0.7128 H   0  0  0  1  0  0  0  0  0  0  0  0
  1  4  1  0  0  0  0
  2  4  1  0  0  0  0
  2  5  2  0  0  0  0
  2  6  1  0  0  0  0
  3  4  1  0  0  0  0
  3  7  1  0  0  0  0
  3  8  1  0  0  0  0
  4 19  1  0  0  0  0
  6  9  1  0  0  0  0
  6 12  1  0  0  0  0
  8 10  1  0  0  0  0
  8 11  2  0  0  0  0
  9 13  1  0  0  0  0
  9 14  1  0  0  0  0
  9 15  1  0  0  0  0
 10 16  1  0  0  0  0
 10 17  1  0  0  0  0
 10 18  1  0  0  0  0
 19 20  1  0  0  0  0
 19 28  1  0  0  0  0
 19 29  1  0  0  0  0
 20 21  4  0  0  0  0
 20 25  4  0  0  0  0
 21 22  4  0  0  0  0
 21 30  1  0  0  0  0
 22 23  4  0  0  0  0
 22 27  1  0  0  0  0
 23 24  4  0  0  0  0
 23 26  1  0  0  0  0
 24 25  4  0  0  0  0
 24 31  1  0  0  0  0
 25 32  1  0  0  0  0
 26 33  1  0  0  0  0
 27 34  1  0  0  0  0
M  END
> <BCLConfClusterSize>
1

> <ConfClashScore>
0 

> <ConfOneFourInteractionScore>
-0.957074 

> <ConfScore>
-0.0555471 

> <ConfScorePBest>
0.00518512 

> <ConfTolerance>
0.310584 

> <RosettaParamsInstructions>
M  ROOT 3
M  POLY_N_BB 3
M  POLY_CA_BB 4
M  POLY_C_BB 2
M  POLY_O_BB 5
M  POLY_IGNORE 9 10 11 12 13 14 15 16 17 18 
M  POLY_UPPER 6
M  POLY_LOWER 8
M  POLY_CHG 0
M  POLY_PROPERTIES ALPHA_AA L_AA PROTEIN AROMATIC POLYMER 
M  END

$$$$



 34 34  0  0  0  0  0  0  0  0999 V2000
   -3.3076    1.9727    1.9118 H   0  0  0  1  0  0  0  0  0  0  0  0
   -1.9121    0.4178    2.2583 C   0  0  0  1  0  0  0  0  0  0  0  0
   -2.1936    2.4503    3.5869 N   0  0  0  1  0  0  0  0  0  0  0  0
   -2.2939    1.8950    2.2455 C   0  0  0  1  0  0  0  0  0  0  0  0
   -2.2673   -0.3336    1.3513 O   0  0  0  1  0  0  0  0  0  0  0  0
   -1.1789   -0.0352    3.2866 N   0  0  0  1  0  0  0  0  0  0  0  0
   -1.4730    3.0848    3.7834 H   0  0  0  1  0  0  0  0  0  0  0  0
   -3.0820    2.1130    4.5966 C   0  0  0  1  0  0  0  0  0  0  0  0
   -0.8092   -1.4364    3.4200 C   0  0  0  1  0  0  0  0  0  0  0  0
   -2.9018    2.7183    5.9604 C   0  0  0  1  0  0  0  0  0  0  0  0
   -3.9849    1.3320    4.3427 O   0  0  0  1  0  0  0  0  0  0  0  0
   -0.8820    0.5995    3.9717 H   0  0  0  1  0  0  0  0  0  0  0  0
    0.0431   -1.5215    4.0613 H   0  0  0  1  0  0  0  0  0  0  0  0
   -0.5713   -1.8356    2.4562 H   0  0  0  1  0  0  0  0  0  0  0  0
   -1.6276   -1.9825    3.8406 H   0  0  0  1  0  0  0  0  0  0  0  0
   -2.7804    3.7773    5.8680 H   0  0  0  1  0  0  0  0  0  0  0  0
   -2.0336    2.2991    6.4245 H   0  0  0  1  0  0  0  0  0  0  0  0
   -3.7633    2.5093    6.5597 H   0  0  0  1  0  0  0  0  0  0  0  0
   -1.4145    2.6666    1.2703 C   0  0  0  1  0  0  0  0  0  0  0  0
   -1.9409    4.0620    1.0660 C   0  0  0  1  0  0  0  0  0  0  0  0
   -1.0605    5.1110    0.8516 C   0  0  0  1  0  0  0  0  0  0  0  0
   -1.5444    6.3928    0.6694 C   0  0  0  1  0  0  0  0  0  0  0  0
   -2.9102    6.6285    0.6956 C   0  0  0  1  0  0  0  0  0  0  0  0
   -3.7878    5.5824    0.9093 C   0  0  0  1  0  0  0  0  0  0  0  0
   -3.3027    4.2968    1.0921 C   0  0  0  1  0  0  0  0  0  0  0  0
   -3.3116    7.9087    0.5042 O   0  0  0  1  0  0  0  0  0  0  0  0
   -0.6636    7.4026    0.4668 O   0  0  0  1  0  0  0  0  0  0  0  0
   -1.4009    2.1556    0.3303 H   0  0  0  1  0  0  0  0  0  0  0  0
   -0.4202    2.7206    1.6619 H   0  0  0  1  0  0  0  0  0  0  0  0
   -0.0361    4.9337    0.8280 H   0  0  0  1  0  0  0  0  0  0  0  0
   -4.8123    5.7598    0.9330 H   0  0  0  1  0  0  0  0  0  0  0  0
   -3.9634    3.5091    1.2489 H   0  0  0  1  0  0  0  0  0  0  0  0
   -2.7022    8.5050    0.9453 H   0  0  0  1  0  0  0  0  0  0  0  0
   -1.0290    8.2206    0.8117 H   0  0  0  1  0  0  0  0  0  0  0  0
  1  4  1  0  0  0  0
  2  4  1  0  0  0  0
  2  5  2  0  0  0  0
  2  6  1  0  0  0  0
  3  4  1  0  0  0  0
  3  7  1  0  0  0  0
  3  8  1  0  0  0  0
  4 19  1  0  0  0  0
  6  9  1  0  0  0  0
  6 12  1  0  0  0  0
  8 10  1  0  0  0  0
  8 11  2  0  0  0  0
  9 13  1  0  0  0  0
  9 14  1  0  0  0  0
  9 15  1  0  0  0  0
 10 16  1  0  0  0  0
 10 17  1  0  0  0  0
 10 18  1  0  0  0  0
 19 20  1  0  0  0  0
 19 28  1  0  0  0  0
 19 29  1  0  0  0  0
 20 21  4  0  0  0  0
 20 25  4  0  0  0  0
 21 22  4  0  0  0  0
 21 30  1  0  0  0  0
 22 23  4  0  0  0  0
 22 27  1  0  0  0  0
 23 24  4  0  0  0  0
 23 26  1  0  0  0  0
 24 25  4  0  0  0  0
 24 31  1  0  0  0  0
 25 32  1  0  0  0  0
 26 33  1  0  0  0  0
 27 34  1  0  0  0  0
M  END
> <BCLConfClusterSize>
1

> <ConfClashScore>
0 

> <ConfOneFourInteractionScore>
-0.952877 

> <ConfScore>
-0.0536532 

> <ConfScorePBest>
0.00515664 

> <ConfTolerance>
0.434387 

> <RosettaParamsInstructions>
M  ROOT 3
M  POLY_N_BB 3
M  POLY_CA_BB 4
M  POLY_C_BB 2
M  POLY_O_BB 5
M  POLY_IGNORE 9 10 11 12 13 14 15 16 17 18 
M  POLY_UPPER 6
M  POLY_LOWER 8
M  POLY_CHG 0
M  POLY_PROPERTIES ALPHA_AA L_AA PROTEIN AROMATIC POLYMER 
M  END

$$$$



 34 34  0  0  0  0  0  0  0  0999 V2000
   -2.9354    2.0071    2.3338 H   0  0  0  1  0  0  0  0  0  0  0  0
   -1.5116    0.4886    2.2002 C   0  0  0  1  0  0  0  0  0  0  0  0
   -1.3667    2.6114    3.4930 N   0  0  0  1  0  0  0  0  0  0  0  0
   -1.8672    1.9598    2.2918 C   0  0  0  1  0  0  0  0  0  0  0  0
   -0.3663    0.1262    1.9871 O   0  0  0  1  0  0  0  0  0  0  0  0
   -2.5305   -0.3692    2.3676 N   0  0  0  1  0  0  0  0  0  0  0  0
   -0.4109    2.8186    3.5553 H   0  0  0  1  0  0  0  0  0  0  0  0
   -2.1902    2.9472    4.5461 C   0  0  0  1  0  0  0  0  0  0  0  0
   -2.3369   -1.8114    2.3889 C   0  0  0  1  0  0  0  0  0  0  0  0
   -1.5246    3.6386    5.7086 C   0  0  0  1  0  0  0  0  0  0  0  0
   -3.3776    2.6835    4.5004 O   0  0  0  1  0  0  0  0  0  0  0  0
   -3.4361   -0.0119    2.4793 H   0  0  0  1  0  0  0  0  0  0  0  0
   -3.2535   -2.2987    2.1293 H   0  0  0  1  0  0  0  0  0  0  0  0
   -2.0367   -2.1163    3.3697 H   0  0  0  1  0  0  0  0  0  0  0  0
   -1.5784   -2.0797    1.6836 H   0  0  0  1  0  0  0  0  0  0  0  0
   -1.1912    4.6086    5.4040 H   0  0  0  1  0  0  0  0  0  0  0  0
   -0.6861    3.0597    6.0350 H   0  0  0  1  0  0  0  0  0  0  0  0
   -2.2243    3.7383    6.5120 H   0  0  0  1  0  0  0  0  0  0  0  0
   -1.4612    2.7227    1.0415 C   0  0  0  1  0  0  0  0  0  0  0  0
   -1.9172    4.1561    0.9837 C   0  0  0  1  0  0  0  0  0  0  0  0
   -1.0330    5.2102    0.8146 C   0  0  0  1  0  0  0  0  0  0  0  0
   -1.5053    6.5085    0.7739 C   0  0  0  1  0  0  0  0  0  0  0  0
   -2.8636    6.7562    0.8968 C   0  0  0  1  0  0  0  0  0  0  0  0
   -3.7451    5.7051    1.0654 C   0  0  0  1  0  0  0  0  0  0  0  0
   -3.2716    4.4030    1.1063 C   0  0  0  1  0  0  0  0  0  0  0  0
   -3.2542    8.0528    0.8422 O   0  0  0  1  0  0  0  0  0  0  0  0
   -0.6799    7.5717    0.6156 O   0  0  0  1  0  0  0  0  0  0  0  0
   -1.8709    2.2117    0.1954 H   0  0  0  1  0  0  0  0  0  0  0  0
   -0.3929    2.7135    0.9815 H   0  0  0  1  0  0  0  0  0  0  0  0
   -0.0143    5.0242    0.7184 H   0  0  0  1  0  0  0  0  0  0  0  0
   -4.7638    5.8912    1.1616 H   0  0  0  1  0  0  0  0  0  0  0  0
   -3.9354    3.6118    1.2291 H   0  0  0  1  0  0  0  0  0  0  0  0
   -4.2084    8.0963    0.7464 H   0  0  0  1  0  0  0  0  0  0  0  0
    0.1738    7.2699    0.2968 H   0  0  0  1  0  0  0  0  0  0  0  0
  1  4  1  0  0  0  0
  2  4  1  0  0  0  0
  2  5  2  0  0  0  0
  2  6  1  0  0  0  0
  3  4  1  0  0  0  0
  3  7  1  0  0  0  0
  3  8  1  0  0  0  0
  4 19  1  0  0  0  0
  6  9  1  0  0  0  0
  6 12  1  0  0  0  0
  8 10  1  0  0  0  0
  8 11  2  0  0  0  0
  9 13  1  0  0  0  0
  9 14  1  0  0  0  0
  9 15  1  0  0  0  0
 10 16  1  0  0  0  0
 10 17  1  0  0  0  0
 10 18  1  0  0  0  0
 19 20  1  0  0  0  0
 19 28  1  0  0  0  0
 19 29  1  0  0  0  0
 20 21  4  0  0  0  0
 20 25  4  0  0  0  0
 21 22  4  0  0  0  0
 21 30  1  0  0  0  0
 22 23  4  0  0  0  0
 22 27  1  0  0  0  0
 23 24  4  0  0  0  0
 23 26  1  0  0  0  0
 24 25  4  0  0  0  0
 24 31  1  0  0  0  0
 25 32  1  0  0  0  0
 26 33  1  0  0  0  0
 27 34  1  0  0  0  0
M  END
> <BCLConfClusterSize>
1

> <ConfClashScore>
0 

> <ConfOneFourInteractionScore>
-0.979134 

> <ConfScore>
-0.0508141 

> <ConfScorePBest>
0.00512816 

> <ConfTolerance>
0.518975 

> <RosettaParamsInstructions>
M  ROOT 3
M  POLY_N_BB 3
M  POLY_CA_BB 4
M  POLY_C_BB 2
M  POLY_O_BB 5
M  POLY_IGNORE 9 10 11 12 13 14 15 16 17 18 
M  POLY_UPPER 6
M  POLY_LOWER 8
M  POLY_CHG 0
M  POLY_PROPERTIES ALPHA_AA L_AA PROTEIN AROMATIC POLYMER 
M  END

$$$$



 34 34  0  0  0  0  0  0  0  0999 V2000
   -0.7657    2.5520   -0.6734 H   0  0  0  1  0  0  0  0  0  0  0  0
   -0.4103    0.6520    0.1499 C   0  0  0  1  0  0  0  0  0  0  0  0
   -2.5627    1.5684   -0.6105 N   0  0  0  1  0  0  0  0  0  0  0  0
   -1.2816    1.8949   -0.0049 C   0  0  0  1  0  0  0  0  0  0  0  0
    0.6215    0.6752    0.8187 O   0  0  0  1  0  0  0  0  0  0  0  0
   -0.8421   -0.4407   -0.4816 N   0  0  0  1  0  0  0  0  0  0  0  0
   -3.1663    0.9566   -0.1394 H   0  0  0  1  0  0  0  0  0  0  0  0
   -2.9493    2.0784   -1.7982 C   0  0  0  1  0  0  0  0  0  0  0  0
   -0.0594   -1.6663   -0.5381 C   0  0  0  1  0  0  0  0  0  0  0  0
   -4.3482    1.7602   -2.2892 C   0  0  0  1  0  0  0  0  0  0  0  0
   -2.1911    2.7811   -2.4652 O   0  0  0  1  0  0  0  0  0  0  0  0
   -1.7168   -0.4174   -0.9229 H   0  0  0  1  0  0  0  0  0  0  0  0
    0.5734   -1.7259    0.3227 H   0  0  0  1  0  0  0  0  0  0  0  0
    0.5419   -1.6647   -1.4231 H   0  0  0  1  0  0  0  0  0  0  0  0
   -0.7181   -2.5094   -0.5553 H   0  0  0  1  0  0  0  0  0  0  0  0
   -5.0669    2.1944   -1.6260 H   0  0  0  1  0  0  0  0  0  0  0  0
   -4.4837    0.6992   -2.3164 H   0  0  0  1  0  0  0  0  0  0  0  0
   -4.4811    2.1625   -3.2718 H   0  0  0  1  0  0  0  0  0  0  0  0
   -1.4349    2.6471    1.3202 C   0  0  0  1  0  0  0  0  0  0  0  0
   -1.9467    4.0528    1.0837 C   0  0  0  1  0  0  0  0  0  0  0  0
   -1.0133    5.0503    0.8482 C   0  0  0  1  0  0  0  0  0  0  0  0
   -1.4307    6.3500    0.6321 C   0  0  0  1  0  0  0  0  0  0  0  0
   -2.7828    6.6553    0.6456 C   0  0  0  1  0  0  0  0  0  0  0  0
   -3.7133    5.6607    0.8804 C   0  0  0  1  0  0  0  0  0  0  0  0
   -3.2949    4.3571    1.0971 C   0  0  0  1  0  0  0  0  0  0  0  0
   -3.2404    7.9132    0.4339 O   0  0  0  1  0  0  0  0  0  0  0  0
   -0.5925    7.3892    0.3993 O   0  0  0  1  0  0  0  0  0  0  0  0
   -0.4834    2.6975    1.8070 H   0  0  0  1  0  0  0  0  0  0  0  0
   -2.1277    2.1217    1.9437 H   0  0  0  1  0  0  0  0  0  0  0  0
    0.0009    4.8206    0.8341 H   0  0  0  1  0  0  0  0  0  0  0  0
   -4.7275    5.8904    0.8945 H   0  0  0  1  0  0  0  0  0  0  0  0
   -3.9954    3.6080    1.2698 H   0  0  0  1  0  0  0  0  0  0  0  0
   -3.2985    8.3783    1.2717 H   0  0  0  1  0  0  0  0  0  0  0  0
   -1.0093    8.2066    0.6817 H   0  0  0  1  0  0  0  0  0  0  0  0
  1  4  1  0  0  0  0
  2  4  1  0  0  0  0
  2  5  2  0  0  0  0
  2  6  1  0  0  0  0
  3  4  1  0  0  0  0
  3  7  1  0  0  0  0
  3  8  1  0  0  0  0
  4 19  1  0  0  0  0
  6  9  1  0  0  0  0
  6 12  1  0  0  0  0
  8 10  1  0  0  0  0
  8 11  2  0  0  0  0
  9 13  1  0  0  0  0
  9 14  1  0  0  0  0
  9 15  1  0  0  0  0
 10 16  1  0  0  0  0
 10 17  1  0  0  0  0
 10 18  1  0  0  0  0
 19 20  1  0  0  0  0
 19 28  1  0  0  0  0
 19 29  1  0  0  0  0
 20 21  4  0  0  0  0
 20 25  4  0  0  0  0
 21 22  4  0  0  0  0
 21 30  1  0  0  0  0
 22 23  4  0  0  0  0
 22 27  1  0  0  0  0
 23 24  4  0  0  0  0
 23 26  1  0  0  0  0
 24 25  4  0  0  0  0
 24 31  1  0  0  0  0
 25 32  1  0  0  0  0
 26 33  1  0  0  0  0
 27 34  1  0  0  0  0
M  END
> <BCLConfClusterSize>
1

> <ConfClashScore>
0 

> <ConfOneFourInteractionScore>
-0.94247 

> <ConfScore>
-0.0497775 

> <ConfScorePBest>
0.00509968 

> <ConfTolerance>
0.37467 

> <RosettaParamsInstructions>
M  ROOT 3
M  POLY_N_BB 3
M  POLY_CA_BB 4
M  POLY_C_BB 2
M  POLY_O_BB 5
M  POLY_IGNORE 9 10 11 12 13 14 15 16 17 18 
M  POLY_UPPER 6
M  POLY_LOWER 8
M  POLY_CHG 0
M  POLY_PROPERTIES ALPHA_AA L_AA PROTEIN AROMATIC POLYMER 
M  END

$$$$



 34 34  0  0  0  0  0  0  0  0999 V2000
   -2.4511    1.8727   -0.3802 H   0  0  0  1  0  0  0  0  0  0  0  0
   -0.6981    2.6036   -1.2903 C   0  0  0  1  0  0  0  0  0  0  0  0
   -0.8831    0.6175    0.0780 N   0  0  0  1  0  0  0  0  0  0  0  0
   -1.4171    1.9570   -0.1180 C   0  0  0  1  0  0  0  0  0  0  0  0
    0.4663    2.9860   -1.1831 O   0  0  0  1  0  0  0  0  0  0  0  0
   -1.3708    2.7442   -2.4435 N   0  0  0  1  0  0  0  0  0  0  0  0
    0.0816    0.5077    0.2106 H   0  0  0  1  0  0  0  0  0  0  0  0
   -1.6700   -0.4784    0.0835 C   0  0  0  1  0  0  0  0  0  0  0  0
   -0.7432    3.4015   -3.5801 C   0  0  0  1  0  0  0  0  0  0  0  0
   -1.0104   -1.8286    0.2861 C   0  0  0  1  0  0  0  0  0  0  0  0
   -2.8872   -0.3876   -0.0710 O   0  0  0  1  0  0  0  0  0  0  0  0
   -2.2865    2.4035   -2.5200 H   0  0  0  1  0  0  0  0  0  0  0  0
    0.1674    2.8966   -3.8265 H   0  0  0  1  0  0  0  0  0  0  0  0
   -0.5298    4.4196   -3.3298 H   0  0  0  1  0  0  0  0  0  0  0  0
   -1.4058    3.3714   -4.4197 H   0  0  0  1  0  0  0  0  0  0  0  0
   -0.3315   -2.0188   -0.5188 H   0  0  0  1  0  0  0  0  0  0  0  0
   -1.7600   -2.5918    0.3080 H   0  0  0  1  0  0  0  0  0  0  0  0
   -0.4742   -1.8280    1.2120 H   0  0  0  1  0  0  0  0  0  0  0  0
   -1.3362    2.7781    1.1699 C   0  0  0  1  0  0  0  0  0  0  0  0
   -1.9218    4.1575    1.0277 C   0  0  0  1  0  0  0  0  0  0  0  0
   -1.0867    5.2530    0.8727 C   0  0  0  1  0  0  0  0  0  0  0  0
   -1.6250    6.5198    0.7475 C   0  0  0  1  0  0  0  0  0  0  0  0
   -2.9999    6.6943    0.7715 C   0  0  0  1  0  0  0  0  0  0  0  0
   -3.8324    5.6020    0.9260 C   0  0  0  1  0  0  0  0  0  0  0  0
   -3.2928    4.3313    1.0516 C   0  0  0  1  0  0  0  0  0  0  0  0
   -3.5743    7.9155    0.6474 O   0  0  0  1  0  0  0  0  0  0  0  0
   -0.7878    7.5756    0.6024 O   0  0  0  1  0  0  0  0  0  0  0  0
   -0.3077    2.8719    1.4499 H   0  0  0  1  0  0  0  0  0  0  0  0
   -1.8697    2.2592    1.9387 H   0  0  0  1  0  0  0  0  0  0  0  0
   -0.0552    5.1217    0.8507 H   0  0  0  1  0  0  0  0  0  0  0  0
   -4.8638    5.7333    0.9481 H   0  0  0  1  0  0  0  0  0  0  0  0
   -3.9194    3.5090    1.1639 H   0  0  0  1  0  0  0  0  0  0  0  0
   -3.2163    8.5073    1.3132 H   0  0  0  1  0  0  0  0  0  0  0  0
    0.0324    7.2812    0.1996 H   0  0  0  1  0  0  0  0  0  0  0  0
  1  4  1  0  0  0  0
  2  4  1  0  0  0  0
  2  5  2  0  0  0  0
  2  6  1  0  0  0  0
  3  4  1  0  0  0  0
  3  7  1  0  0  0  0
  3  8  1  0  0  0  0
  4 19  1  0  0  0  0
  6  9  1  0  0  0  0
  6 12  1  0  0  0  0
  8 10  1  0  0  0  0
  8 11  2  0  0  0  0
  9 13  1  0  0  0  0
  9 14  1  0  0  0  0
  9 15  1  0  0  0  0
 10 16  1  0  0  0  0
 10 17  1  0  0  0  0
 10 18  1  0  0  0  0
 19 20  1  0  0  0  0
 19 28  1  0  0  0  0
 19 29  1  0  0  0  0
 20 21  4  0  0  0  0
 20 25  4  0  0  0  0
 21 22  4  0  0  0  0
 21 30  1  0  0  0  0
 22 23  4  0  0  0  0
 22 27  1  0  0  0  0
 23 24  4  0  0  0  0
 23 26  1  0  0  0  0
 24 25  4  0  0  0  0
 24 31  1  0  0  0  0
 25 32  1  0  0  0  0
 26 33  1  0  0  0  0
 27 34  1  0  0  0  0
M  END
> <BCLConfClusterSize>
1

> <ConfClashScore>
0 

> <ConfOneFourInteractionScore>
-0.98383 

> <ConfScore>
-0.0493334 

> <ConfScorePBest>
0.0050712 

> <ConfTolerance>
0.366647 

> <RosettaParamsInstructions>
M  ROOT 3
M  POLY_N_BB 3
M  POLY_CA_BB 4
M  POLY_C_BB 2
M  POLY_O_BB 5
M  POLY_IGNORE 9 10 11 12 13 14 15 16 17 18 
M  POLY_UPPER 6
M  POLY_LOWER 8
M  POLY_CHG 0
M  POLY_PROPERTIES ALPHA_AA L_AA PROTEIN AROMATIC POLYMER 
M  END

$$$$



 34 34  0  0  0  0  0  0  0  0999 V2000
   -0.3218    2.7492    2.7818 H   0  0  0  1  0  0  0  0  0  0  0  0
   -2.3263    2.2971    3.2546 C   0  0  0  1  0  0  0  0  0  0  0  0
   -0.6306    0.7804    2.2586 N   0  0  0  1  0  0  0  0  0  0  0  0
   -1.1032    2.1570    2.3533 C   0  0  0  1  0  0  0  0  0  0  0  0
   -3.3574    1.6629    3.0348 O   0  0  0  1  0  0  0  0  0  0  0  0
   -2.1974    3.1430    4.2806 N   0  0  0  1  0  0  0  0  0  0  0  0
   -1.1287    0.1466    1.7013 H   0  0  0  1  0  0  0  0  0  0  0  0
    0.4578    0.3533    2.9053 C   0  0  0  1  0  0  0  0  0  0  0  0
   -3.3110    3.4803    5.1547 C   0  0  0  1  0  0  0  0  0  0  0  0
    0.9211   -1.0622    2.5862 C   0  0  0  1  0  0  0  0  0  0  0  0
    1.1088    0.9985    3.7260 O   0  0  0  1  0  0  0  0  0  0  0  0
   -1.3225    3.5506    4.4505 H   0  0  0  1  0  0  0  0  0  0  0  0
   -4.2333    3.3156    4.6380 H   0  0  0  1  0  0  0  0  0  0  0  0
   -3.2411    4.5092    5.4401 H   0  0  0  1  0  0  0  0  0  0  0  0
   -3.2772    2.8642    6.0289 H   0  0  0  1  0  0  0  0  0  0  0  0
    1.4262   -1.4727    3.4355 H   0  0  0  1  0  0  0  0  0  0  0  0
    1.5896   -1.0387    1.7510 H   0  0  0  1  0  0  0  0  0  0  0  0
    0.0731   -1.6697    2.3479 H   0  0  0  1  0  0  0  0  0  0  0  0
   -1.3799    2.7136    0.9532 C   0  0  0  1  0  0  0  0  0  0  0  0
   -1.9317    4.1140    0.9739 C   0  0  0  1  0  0  0  0  0  0  0  0
   -1.0710    5.1995    0.9223 C   0  0  0  1  0  0  0  0  0  0  0  0
   -1.5781    6.4850    0.9467 C   0  0  0  1  0  0  0  0  0  0  0  0
   -2.9474    6.6889    1.0173 C   0  0  0  1  0  0  0  0  0  0  0  0
   -3.8053    5.6066    1.0688 C   0  0  0  1  0  0  0  0  0  0  0  0
   -3.2970    4.3172    1.0443 C   0  0  0  1  0  0  0  0  0  0  0  0
   -3.4917    7.9299    1.0385 O   0  0  0  1  0  0  0  0  0  0  0  0
   -0.6773    7.4964    0.8985 O   0  0  0  1  0  0  0  0  0  0  0  0
   -2.0881    2.0757    0.4670 H   0  0  0  1  0  0  0  0  0  0  0  0
   -0.4637    2.7167    0.4007 H   0  0  0  1  0  0  0  0  0  0  0  0
   -0.0439    5.0465    0.8652 H   0  0  0  1  0  0  0  0  0  0  0  0
   -4.8324    5.7596    1.1258 H   0  0  0  1  0  0  0  0  0  0  0  0
   -3.9429    3.5028    1.0790 H   0  0  0  1  0  0  0  0  0  0  0  0
   -3.0711    8.4758    0.3702 H   0  0  0  1  0  0  0  0  0  0  0  0
   -0.4094    7.6438   -0.0115 H   0  0  0  1  0  0  0  0  0  0  0  0
  1  4  1  0  0  0  0
  2  4  1  0  0  0  0
  2  5  2  0  0  0  0
  2  6  1  0  0  0  0
  3  4  1  0  0  0  0
  3  7  1  0  0  0  0
  3  8  1  0  0  0  0
  4 19  1  0  0  0  0
  6  9  1  0  0  0  0
  6 12  1  0  0  0  0
  8 10  1  0  0  0  0
  8 11  2  0  0  0  0
  9 13  1  0  0  0  0
  9 14  1  0  0  0  0
  9 15  1  0  0  0  0
 10 16  1  0  0  0  0
 10 17  1  0  0  0  0
 10 18  1  0  0  0  0
 19 20  1  0  0  0  0
 19 28  1  0  0  0  0
 19 29  1  0  0  0  0
 20 21  4  0  0  0  0
 20 25  4  0  0  0  0
 21 22  4  0  0  0  0
 21 30  1  0  0  0  0
 22 23  4  0  0  0  0
 22 27  1  0  0  0  0
 23 24  4  0  0  0  0
 23 26  1  0  0  0  0
 24 25  4  0  0  0  0
 24 31  1  0  0  0  0
 25 32  1  0  0  0  0
 26 33  1  0  0  0  0
 27 34  1  0  0  0  0
M  END
> <BCLConfClusterSize>
1

> <ConfClashScore>
0 

> <ConfOneFourInteractionScore>
-0.985807 

> <ConfScore>
-0.0492199 

> <ConfScorePBest>
0.00504272 

> <ConfTolerance>
0.271315 

> <RosettaParamsInstructions>
M  ROOT 3
M  POLY_N_BB 3
M  POLY_CA_BB 4
M  POLY_C_BB 2
M  POLY_O_BB 5
M  POLY_IGNORE 9 10 11 12 13 14 15 16 17 18 
M  POLY_UPPER 6
M  POLY_LOWER 8
M  POLY_CHG 0
M  POLY_PROPERTIES ALPHA_AA L_AA PROTEIN AROMATIC POLYMER 
M  END

$$$$



 34 34  0  0  0  0  0  0  0  0999 V2000
   -3.1005    1.8784    0.1531 H   0  0  0  1  0  0  0  0  0  0  0  0
   -1.8698    0.2723    0.7155 C   0  0  0  1  0  0  0  0  0  0  0  0
   -3.2697    1.6625    2.1855 N   0  0  0  1  0  0  0  0  0  0  0  0
   -2.4565    1.6548    0.9778 C   0  0  0  1  0  0  0  0  0  0  0  0
   -1.4256   -0.0867   -0.3626 O   0  0  0  1  0  0  0  0  0  0  0  0
   -1.8609   -0.5642    1.7546 N   0  0  0  1  0  0  0  0  0  0  0  0
   -2.9692    2.1607    2.9742 H   0  0  0  1  0  0  0  0  0  0  0  0
   -4.4361    0.9853    2.2212 C   0  0  0  1  0  0  0  0  0  0  0  0
   -1.2175   -1.8695    1.7679 C   0  0  0  1  0  0  0  0  0  0  0  0
   -5.1598    0.9931    3.5487 C   0  0  0  1  0  0  0  0  0  0  0  0
   -4.8970    0.3933    1.2462 O   0  0  0  1  0  0  0  0  0  0  0  0
   -2.3223   -0.2781    2.5704 H   0  0  0  1  0  0  0  0  0  0  0  0
   -0.4857   -1.8990    2.5479 H   0  0  0  1  0  0  0  0  0  0  0  0
   -0.7410   -2.0416    0.8254 H   0  0  0  1  0  0  0  0  0  0  0  0
   -1.9528   -2.6275    1.9401 H   0  0  0  1  0  0  0  0  0  0  0  0
   -4.4607    0.8100    4.3377 H   0  0  0  1  0  0  0  0  0  0  0  0
   -5.9083    0.2285    3.5511 H   0  0  0  1  0  0  0  0  0  0  0  0
   -5.6226    1.9464    3.6967 H   0  0  0  1  0  0  0  0  0  0  0  0
   -1.3732    2.7344    0.9951 C   0  0  0  1  0  0  0  0  0  0  0  0
   -1.9325    4.1316    0.9644 C   0  0  0  1  0  0  0  0  0  0  0  0
   -1.0891    5.2120    0.7568 C   0  0  0  1  0  0  0  0  0  0  0  0
   -1.6027    6.4950    0.7341 C   0  0  0  1  0  0  0  0  0  0  0  0
   -2.9616    6.7010    0.9135 C   0  0  0  1  0  0  0  0  0  0  0  0
   -3.8024    5.6238    1.1204 C   0  0  0  1  0  0  0  0  0  0  0  0
   -3.2875    4.3369    1.1433 C   0  0  0  1  0  0  0  0  0  0  0  0
   -3.4418    7.9680    0.8818 O   0  0  0  1  0  0  0  0  0  0  0  0
   -0.8178    7.5826    0.5398 O   0  0  0  1  0  0  0  0  0  0  0  0
   -0.7449    2.6002    0.1394 H   0  0  0  1  0  0  0  0  0  0  0  0
   -0.7922    2.6197    1.8862 H   0  0  0  1  0  0  0  0  0  0  0  0
   -0.0701    5.0572    0.6182 H   0  0  0  1  0  0  0  0  0  0  0  0
   -4.8214    5.7786    1.2590 H   0  0  0  1  0  0  0  0  0  0  0  0
   -3.9208    3.5260    1.2950 H   0  0  0  1  0  0  0  0  0  0  0  0
   -3.3352    8.3290   -0.0014 H   0  0  0  1  0  0  0  0  0  0  0  0
   -0.0230    7.5035    1.0724 H   0  0  0  1  0  0  0  0  0  0  0  0
  1  4  1  0  0  0  0
  2  4  1  0  0  0  0
  2  5  2  0  0  0  0
  2  6  1  0  0  0  0
  3  4  1  0  0  0  0
  3  7  1  0  0  0  0
  3  8  1  0  0  0  0
  4 19  1  0  0  0  0
  6  9  1  0  0  0  0
  6 12  1  0  0  0  0
  8 10  1  0  0  0  0
  8 11  2  0  0  0  0
  9 13  1  0  0  0  0
  9 14  1  0  0  0  0
  9 15  1  0  0  0  0
 10 16  1  0  0  0  0
 10 17  1  0  0  0  0
 10 18  1  0  0  0  0
 19 20  1  0  0  0  0
 19 28  1  0  0  0  0
 19 29  1  0  0  0  0
 20 21  4  0  0  0  0
 20 25  4  0  0  0  0
 21 22  4  0  0  0  0
 21 30  1  0  0  0  0
 22 23  4  0  0  0  0
 22 27  1  0  0  0  0
 23 24  4  0  0  0  0
 23 26  1  0  0  0  0
 24 25  4  0  0  0  0
 24 31  1  0  0  0  0
 25 32  1  0  0  0  0
 26 33  1  0  0  0  0
 27 34  1  0  0  0  0
M  END
> <BCLConfClusterSize>
1

> <ConfClashScore>
0 

> <ConfOneFourInteractionScore>
-0.930333 

> <ConfScore>
-0.0452877 

> <ConfScorePBest>
0.00501424 

> <ConfTolerance>
0.50414 

> <RosettaParamsInstructions>
M  ROOT 3
M  POLY_N_BB 3
M  POLY_CA_BB 4
M  POLY_C_BB 2
M  POLY_O_BB 5
M  POLY_IGNORE 9 10 11 12 13 14 15 16 17 18 
M  POLY_UPPER 6
M  POLY_LOWER 8
M  POLY_CHG 0
M  POLY_PROPERTIES ALPHA_AA L_AA PROTEIN AROMATIC POLYMER 
M  END

$$$$



 34 34  0  0  0  0  0  0  0  0999 V2000
   -0.7176    0.9643    0.4532 H   0  0  0  1  0  0  0  0  0  0  0  0
   -2.3403    1.5178   -0.7536 C   0  0  0  1  0  0  0  0  0  0  0  0
   -0.0969    2.4753   -0.7898 N   0  0  0  1  0  0  0  0  0  0  0  0
   -1.1165    1.8850    0.0816 C   0  0  0  1  0  0  0  0  0  0  0  0
   -3.2025    0.7547   -0.3213 O   0  0  0  1  0  0  0  0  0  0  0  0
   -2.4045    2.0761   -1.9658 N   0  0  0  1  0  0  0  0  0  0  0  0
    0.2420    3.3639   -0.5532 H   0  0  0  1  0  0  0  0  0  0  0  0
    0.4077    1.8909   -1.8871 C   0  0  0  1  0  0  0  0  0  0  0  0
   -3.5314    1.7929   -2.8419 C   0  0  0  1  0  0  0  0  0  0  0  0
    1.4371    2.6971   -2.6463 C   0  0  0  1  0  0  0  0  0  0  0  0
    0.0670    0.7722   -2.2665 O   0  0  0  1  0  0  0  0  0  0  0  0
   -1.6911    2.6775   -2.2655 H   0  0  0  1  0  0  0  0  0  0  0  0
   -4.4330    2.1527   -2.3919 H   0  0  0  1  0  0  0  0  0  0  0  0
   -3.6067    0.7367   -2.9957 H   0  0  0  1  0  0  0  0  0  0  0  0
   -3.3831    2.2811   -3.7825 H   0  0  0  1  0  0  0  0  0  0  0  0
    1.9205    3.3788   -1.9781 H   0  0  0  1  0  0  0  0  0  0  0  0
    0.9544    3.2459   -3.4278 H   0  0  0  1  0  0  0  0  0  0  0  0
    2.1648    2.0371   -3.0702 H   0  0  0  1  0  0  0  0  0  0  0  0
   -1.4223    2.7361    1.2916 C   0  0  0  1  0  0  0  0  0  0  0  0
   -1.9139    4.1483    1.0486 C   0  0  0  1  0  0  0  0  0  0  0  0
   -1.0531    5.1930    0.7500 C   0  0  0  1  0  0  0  0  0  0  0  0
   -1.5550    6.4640    0.5426 C   0  0  0  1  0  0  0  0  0  0  0  0
   -2.9195    6.6930    0.6280 C   0  0  0  1  0  0  0  0  0  0  0  0
   -3.7776    5.6512    0.9257 C   0  0  0  1  0  0  0  0  0  0  0  0
   -3.2744    4.3765    1.1337 C   0  0  0  1  0  0  0  0  0  0  0  0
   -3.3877    7.9469    0.4153 O   0  0  0  1  0  0  0  0  0  0  0  0
   -0.6542    7.4363    0.2603 O   0  0  0  1  0  0  0  0  0  0  0  0
   -0.5247    2.8047    1.8699 H   0  0  0  1  0  0  0  0  0  0  0  0
   -2.1745    2.2283    1.8584 H   0  0  0  1  0  0  0  0  0  0  0  0
   -0.0298    5.0204    0.6820 H   0  0  0  1  0  0  0  0  0  0  0  0
   -4.8009    5.8238    0.9937 H   0  0  0  1  0  0  0  0  0  0  0  0
   -3.9206    3.5918    1.3538 H   0  0  0  1  0  0  0  0  0  0  0  0
   -3.6858    8.3229    1.2468 H   0  0  0  1  0  0  0  0  0  0  0  0
   -0.0842    7.5756    1.0201 H   0  0  0  1  0  0  0  0  0  0  0  0
  1  4  1  0  0  0  0
  2  4  1  0  0  0  0
  2  5  2  0  0  0  0
  2  6  1  0  0  0  0
  3  4  1  0  0  0  0
  3  7  1  0  0  0  0
  3  8  1  0  0  0  0
  4 19  1  0  0  0  0
  6  9  1  0  0  0  0
  6 12  1  0  0  0  0
  8 10  1  0  0  0  0
  8 11  2  0  0  0  0
  9 13  1  0  0  0  0
  9 14  1  0  0  0  0
  9 15  1  0  0  0  0
 10 16  1  0  0  0  0
 10 17  1  0  0  0  0
 10 18  1  0  0  0  0
 19 20  1  0  0  0  0
 19 28  1  0  0  0  0
 19 29  1  0  0  0  0
 20 21  4  0  0  0  0
 20 25  4  0  0  0  0
 21 22  4  0  0  0  0
 21 30  1  0  0  0  0
 22 23  4  0  0  0  0
 22 27  1  0  0  0  0
 23 24  4  0  0  0  0
 23 26  1  0  0  0  0
 24 25  4  0  0  0  0
 24 31  1  0  0  0  0
 25 32  1  0  0  0  0
 26 33  1  0  0  0  0
 27 34  1  0  0  0  0
M  END
> <BCLConfClusterSize>
1

> <ConfClashScore>
0 

> <ConfOneFourInteractionScore>
-0.931937 

> <ConfScore>
-0.0436865 

> <ConfScorePBest>
0.00498576 

> <ConfTolerance>
0.395021 

> <RosettaParamsInstructions>
M  ROOT 3
M  POLY_N_BB 3
M  POLY_CA_BB 4
M  POLY_C_BB 2
M  POLY_O_BB 5
M  POLY_IGNORE 9 10 11 12 13 14 15 16 17 18 
M  POLY_UPPER 6
M  POLY_LOWER 8
M  POLY_CHG 0
M  POLY_PROPERTIES ALPHA_AA L_AA PROTEIN AROMATIC POLYMER 
M  END

$$$$



 34 34  0  0  0  0  0  0  0  0999 V2000
   -2.4261    1.9800   -0.6793 H   0  0  0  1  0  0  0  0  0  0  0  0
   -0.5154    2.5559   -1.3735 C   0  0  0  1  0  0  0  0  0  0  0  0
   -1.0604    0.5627   -0.0476 N   0  0  0  1  0  0  0  0  0  0  0  0
   -1.4204    1.9471   -0.3154 C   0  0  0  1  0  0  0  0  0  0  0  0
    0.6998    2.6351   -1.2003 O   0  0  0  1  0  0  0  0  0  0  0  0
   -1.1032    2.9129   -2.5256 N   0  0  0  1  0  0  0  0  0  0  0  0
   -0.7722    0.3152    0.8557 H   0  0  0  1  0  0  0  0  0  0  0  0
   -1.1098   -0.3919   -0.9997 C   0  0  0  1  0  0  0  0  0  0  0  0
   -0.3589    3.5045   -3.6273 C   0  0  0  1  0  0  0  0  0  0  0  0
   -0.7816   -1.8168   -0.5983 C   0  0  0  1  0  0  0  0  0  0  0  0
   -1.4114   -0.1175   -2.1583 O   0  0  0  1  0  0  0  0  0  0  0  0
   -2.0672    2.7702   -2.6288 H   0  0  0  1  0  0  0  0  0  0  0  0
    0.6343    3.1067   -3.6418 H   0  0  0  1  0  0  0  0  0  0  0  0
   -0.3158    4.5659   -3.4990 H   0  0  0  1  0  0  0  0  0  0  0  0
   -0.8479    3.2760   -4.5512 H   0  0  0  1  0  0  0  0  0  0  0  0
   -1.2983   -2.0610    0.3063 H   0  0  0  1  0  0  0  0  0  0  0  0
    0.2730   -1.9093   -0.4424 H   0  0  0  1  0  0  0  0  0  0  0  0
   -1.0878   -2.4856   -1.3754 H   0  0  0  1  0  0  0  0  0  0  0  0
   -1.3681    2.7259    0.9984 C   0  0  0  1  0  0  0  0  0  0  0  0
   -1.9339    4.1198    0.9452 C   0  0  0  1  0  0  0  0  0  0  0  0
   -1.0728    5.2049    0.8928 C   0  0  0  1  0  0  0  0  0  0  0  0
   -1.5780    6.4906    0.9378 C   0  0  0  1  0  0  0  0  0  0  0  0
   -2.9458    6.6952    1.0299 C   0  0  0  1  0  0  0  0  0  0  0  0
   -3.8043    5.6133    1.0821 C   0  0  0  1  0  0  0  0  0  0  0  0
   -3.2979    4.3237    1.0369 C   0  0  0  1  0  0  0  0  0  0  0  0
   -3.4884    7.9364    1.0718 O   0  0  0  1  0  0  0  0  0  0  0  0
   -0.7155    7.5350    0.8904 O   0  0  0  1  0  0  0  0  0  0  0  0
   -0.3438    2.7968    1.2995 H   0  0  0  1  0  0  0  0  0  0  0  0
   -1.9185    2.1740    1.7314 H   0  0  0  1  0  0  0  0  0  0  0  0
   -0.0468    5.0515    0.8197 H   0  0  0  1  0  0  0  0  0  0  0  0
   -4.8303    5.7667    1.1552 H   0  0  0  1  0  0  0  0  0  0  0  0
   -3.9442    3.5097    1.0722 H   0  0  0  1  0  0  0  0  0  0  0  0
   -3.1689    8.4511    0.3270 H   0  0  0  1  0  0  0  0  0  0  0  0
   -0.2844    7.5559    0.0330 H   0  0  0  1  0  0  0  0  0  0  0  0
  1  4  1  0  0  0  0
  2  4  1  0  0  0  0
  2  5  2  0  0  0  0
  2  6  1  0  0  0  0
  3  4  1  0  0  0  0
  3  7  1  0  0  0  0
  3  8  1  0  0  0  0
  4 19  1  0  0  0  0
  6  9  1  0  0  0  0
  6 12  1  0  0  0  0
  8 10  1  0  0  0  0
  8 11  2  0  0  0  0
  9 13  1  0  0  0  0
  9 14  1  0  0  0  0
  9 15  1  0  0  0  0
 10 16  1  0  0  0  0
 10 17  1  0  0  0  0
 10 18  1  0  0  0  0
 19 20  1  0  0  0  0
 19 28  1  0  0  0  0
 19 29  1  0  0  0  0
 20 21  4  0  0  0  0
 20 25  4  0  0  0  0
 21 22  4  0  0  0  0
 21 30  1  0  0  0  0
 22 23  4  0  0  0  0
 22 27  1  0  0  0  0
 23 24  4  0  0  0  0
 23 26  1  0  0  0  0
 24 25  4  0  0  0  0
 24 31  1  0  0  0  0
 25 32  1  0  0  0  0
 26 33  1  0  0  0  0
 27 34  1  0  0  0  0
M  END
> <BCLConfClusterSize>
1

> <ConfClashScore>
0 

> <ConfOneFourInteractionScore>
-0.978127 

> <ConfScore>
-0.0418426 

> <ConfScorePBest>
0.00495728 

> <ConfTolerance>
0.291003 

> <RosettaParamsInstructions>
M  ROOT 3
M  POLY_N_BB 3
M  POLY_CA_BB 4
M  POLY_C_BB 2
M  POLY_O_BB 5
M  POLY_IGNORE 9 10 11 12 13 14 15 16 17 18 
M  POLY_UPPER 6
M  POLY_LOWER 8
M  POLY_CHG 0
M  POLY_PROPERTIES ALPHA_AA L_AA PROTEIN AROMATIC POLYMER 
M  END

$$$$



 34 34  0  0  0  0  0  0  0  0999 V2000
   -1.0277    1.0729    2.4065 H   0  0  0  1  0  0  0  0  0  0  0  0
   -0.0278    2.7724    3.1207 C   0  0  0  1  0  0  0  0  0  0  0  0
   -2.4371    2.2755    3.2934 N   0  0  0  1  0  0  0  0  0  0  0  0
   -1.2373    2.1187    2.4916 C   0  0  0  1  0  0  0  0  0  0  0  0
    1.0845    2.2532    3.0382 O   0  0  0  1  0  0  0  0  0  0  0  0
   -0.2037    3.9283    3.7673 N   0  0  0  1  0  0  0  0  0  0  0  0
   -3.2088    2.7377    2.9045 H   0  0  0  1  0  0  0  0  0  0  0  0
   -2.5258    1.8124    4.5412 C   0  0  0  1  0  0  0  0  0  0  0  0
    0.8556    4.5526    4.5458 C   0  0  0  1  0  0  0  0  0  0  0  0
   -3.8723    1.9898    5.2155 C   0  0  0  1  0  0  0  0  0  0  0  0
   -1.5939    1.2775    5.1190 O   0  0  0  1  0  0  0  0  0  0  0  0
   -1.0764    4.3712    3.7155 H   0  0  0  1  0  0  0  0  0  0  0  0
    1.4832    3.7951    4.9668 H   0  0  0  1  0  0  0  0  0  0  0  0
    0.4238    5.1355    5.3323 H   0  0  0  1  0  0  0  0  0  0  0  0
    1.4388    5.1861    3.9105 H   0  0  0  1  0  0  0  0  0  0  0  0
   -3.9055    1.3999    6.1076 H   0  0  0  1  0  0  0  0  0  0  0  0
   -4.6485    1.6738    4.5502 H   0  0  0  1  0  0  0  0  0  0  0  0
   -4.0131    3.0208    5.4645 H   0  0  0  1  0  0  0  0  0  0  0  0
   -1.4793    2.6475    1.0810 C   0  0  0  1  0  0  0  0  0  0  0  0
   -1.9412    4.0778    0.9984 C   0  0  0  1  0  0  0  0  0  0  0  0
   -1.0257    5.0892    0.7520 C   0  0  0  1  0  0  0  0  0  0  0  0
   -1.4498    6.4028    0.6817 C   0  0  0  1  0  0  0  0  0  0  0  0
   -2.7910    6.7084    0.8522 C   0  0  0  1  0  0  0  0  0  0  0  0
   -3.7036    5.6999    1.0978 C   0  0  0  1  0  0  0  0  0  0  0  0
   -3.2786    4.3824    1.1684 C   0  0  0  1  0  0  0  0  0  0  0  0
   -3.1341    8.0166    0.7647 O   0  0  0  1  0  0  0  0  0  0  0  0
   -0.5350    7.3743    0.4450 O   0  0  0  1  0  0  0  0  0  0  0  0
   -2.2249    2.0328    0.6215 H   0  0  0  1  0  0  0  0  0  0  0  0
   -0.5624    2.5647    0.5356 H   0  0  0  1  0  0  0  0  0  0  0  0
   -0.0200    4.8596    0.6201 H   0  0  0  1  0  0  0  0  0  0  0  0
   -4.7093    5.9295    1.2297 H   0  0  0  1  0  0  0  0  0  0  0  0
   -3.9659    3.6231    1.3493 H   0  0  0  1  0  0  0  0  0  0  0  0
   -3.8446    8.1196    0.1273 H   0  0  0  1  0  0  0  0  0  0  0  0
   -0.6011    8.0491    1.1246 H   0  0  0  1  0  0  0  0  0  0  0  0
  1  4  1  0  0  0  0
  2  4  1  0  0  0  0
  2  5  2  0  0  0  0
  2  6  1  0  0  0  0
  3  4  1  0  0  0  0
  3  7  1  0  0  0  0
  3  8  1  0  0  0  0
  4 19  1  0  0  0  0
  6  9  1  0  0  0  0
  6 12  1  0  0  0  0
  8 10  1  0  0  0  0
  8 11  2  0  0  0  0
  9 13  1  0  0  0  0
  9 14  1  0  0  0  0
  9 15  1  0  0  0  0
 10 16  1  0  0  0  0
 10 17  1  0  0  0  0
 10 18  1  0  0  0  0
 19 20  1  0  0  0  0
 19 28  1  0  0  0  0
 19 29  1  0  0  0  0
 20 21  4  0  0  0  0
 20 25  4  0  0  0  0
 21 22  4  0  0  0  0
 21 30  1  0  0  0  0
 22 23  4  0  0  0  0
 22 27  1  0  0  0  0
 23 24  4  0  0  0  0
 23 26  1  0  0  0  0
 24 25  4  0  0  0  0
 24 31  1  0  0  0  0
 25 32  1  0  0  0  0
 26 33  1  0  0  0  0
 27 34  1  0  0  0  0
M  END
> <BCLConfClusterSize>
1

> <ConfClashScore>
0 

> <ConfOneFourInteractionScore>
-0.950605 

> <ConfScore>
-0.0390185 

> <ConfScorePBest>
0.0049288 

> <ConfTolerance>
0.286281 

> <RosettaParamsInstructions>
M  ROOT 3
M  POLY_N_BB 3
M  POLY_CA_BB 4
M  POLY_C_BB 2
M  POLY_O_BB 5
M  POLY_IGNORE 9 10 11 12 13 14 15 16 17 18 
M  POLY_UPPER 6
M  POLY_LOWER 8
M  POLY_CHG 0
M  POLY_PROPERTIES ALPHA_AA L_AA PROTEIN AROMATIC POLYMER 
M  END

$$$$



 34 34  0  0  0  0  0  0  0  0999 V2000
   -0.7775    1.0328   -0.0012 H   0  0  0  1  0  0  0  0  0  0  0  0
   -2.8097    1.3700   -0.4144 C   0  0  0  1  0  0  0  0  0  0  0  0
   -0.8789    2.6927   -1.2126 N   0  0  0  1  0  0  0  0  0  0  0  0
   -1.4128    1.8846   -0.1264 C   0  0  0  1  0  0  0  0  0  0  0  0
   -3.6548    2.0966   -0.9303 O   0  0  0  1  0  0  0  0  0  0  0  0
   -3.0936    0.0989   -0.0889 N   0  0  0  1  0  0  0  0  0  0  0  0
   -1.4982    3.2236   -1.7557 H   0  0  0  1  0  0  0  0  0  0  0  0
    0.4263    2.7360   -1.4951 C   0  0  0  1  0  0  0  0  0  0  0  0
   -4.4389   -0.4471   -0.1881 C   0  0  0  1  0  0  0  0  0  0  0  0
    0.8074    3.5331   -2.7273 C   0  0  0  1  0  0  0  0  0  0  0  0
    1.2788    2.1715   -0.8109 O   0  0  0  1  0  0  0  0  0  0  0  0
   -2.3697   -0.4816    0.2264 H   0  0  0  1  0  0  0  0  0  0  0  0
   -4.9736    0.0594   -0.9644 H   0  0  0  1  0  0  0  0  0  0  0  0
   -4.9484   -0.3108    0.7429 H   0  0  0  1  0  0  0  0  0  0  0  0
   -4.3840   -1.4911   -0.4158 H   0  0  0  1  0  0  0  0  0  0  0  0
    1.0178    4.5443   -2.4476 H   0  0  0  1  0  0  0  0  0  0  0  0
   -0.0025    3.5178   -3.4263 H   0  0  0  1  0  0  0  0  0  0  0  0
    1.6760    3.0998   -3.1775 H   0  0  0  1  0  0  0  0  0  0  0  0
   -1.3732    2.6763    1.1844 C   0  0  0  1  0  0  0  0  0  0  0  0
   -1.9475    4.0617    1.0540 C   0  0  0  1  0  0  0  0  0  0  0  0
   -1.0611    5.1240    0.9671 C   0  0  0  1  0  0  0  0  0  0  0  0
   -1.5398    6.4155    0.8516 C   0  0  0  1  0  0  0  0  0  0  0  0
   -2.9059    6.6480    0.8172 C   0  0  0  1  0  0  0  0  0  0  0  0
   -3.7894    5.5888    0.9038 C   0  0  0  1  0  0  0  0  0  0  0  0
   -3.3096    4.2934    1.0197 C   0  0  0  1  0  0  0  0  0  0  0  0
   -3.3017    7.9386    0.6971 O   0  0  0  1  0  0  0  0  0  0  0  0
   -0.7854    7.5379    0.7636 O   0  0  0  1  0  0  0  0  0  0  0  0
   -0.3548    2.7583    1.5021 H   0  0  0  1  0  0  0  0  0  0  0  0
   -1.9356    2.1426    1.9218 H   0  0  0  1  0  0  0  0  0  0  0  0
   -0.0362    4.9492    0.9889 H   0  0  0  1  0  0  0  0  0  0  0  0
   -4.8144    5.7635    0.8820 H   0  0  0  1  0  0  0  0  0  0  0  0
   -3.9745    3.4961    1.0808 H   0  0  0  1  0  0  0  0  0  0  0  0
   -2.6785    8.5087    1.1534 H   0  0  0  1  0  0  0  0  0  0  0  0
   -0.9619    7.9780   -0.0711 H   0  0  0  1  0  0  0  0  0  0  0  0
  1  4  1  0  0  0  0
  2  4  1  0  0  0  0
  2  5  2  0  0  0  0
  2  6  1  0  0  0  0
  3  4  1  0  0  0  0
  3  7  1  0  0  0  0
  3  8  1  0  0  0  0
  4 19  1  0  0  0  0
  6  9  1  0  0  0  0
  6 12  1  0  0  0  0
  8 10  1  0  0  0  0
  8 11  2  0  0  0  0
  9 13  1  0  0  0  0
  9 14  1  0  0  0  0
  9 15  1  0  0  0  0
 10 16  1  0  0  0  0
 10 17  1  0  0  0  0
 10 18  1  0  0  0  0
 19 20  1  0  0  0  0
 19 28  1  0  0  0  0
 19 29  1  0  0  0  0
 20 21  4  0  0  0  0
 20 25  4  0  0  0  0
 21 22  4  0  0  0  0
 21 30  1  0  0  0  0
 22 23  4  0  0  0  0
 22 27  1  0  0  0  0
 23 24  4  0  0  0  0
 23 26  1  0  0  0  0
 24 25  4  0  0  0  0
 24 31  1  0  0  0  0
 25 32  1  0  0  0  0
 26 33  1  0  0  0  0
 27 34  1  0  0  0  0
M  END
> <BCLConfClusterSize>
1

> <ConfClashScore>
0 

> <ConfOneFourInteractionScore>
-0.980789 

> <ConfScore>
-0.0336365 

> <ConfScorePBest>
0.00490032 

> <ConfTolerance>
0.539103 

> <RosettaParamsInstructions>
M  ROOT 3
M  POLY_N_BB 3
M  POLY_CA_BB 4
M  POLY_C_BB 2
M  POLY_O_BB 5
M  POLY_IGNORE 9 10 11 12 13 14 15 16 17 18 
M  POLY_UPPER 6
M  POLY_LOWER 8
M  POLY_CHG 0
M  POLY_PROPERTIES ALPHA_AA L_AA PROTEIN AROMATIC POLYMER 
M  END

$$$$



 34 34  0  0  0  0  0  0  0  0999 V2000
   -0.3381    3.2682    3.0585 H   0  0  0  1  0  0  0  0  0  0  0  0
   -2.2384    2.5615    3.6539 C   0  0  0  1  0  0  0  0  0  0  0  0
   -0.2810    1.2123    2.9527 N   0  0  0  1  0  0  0  0  0  0  0  0
   -0.9906    2.4690    2.7748 C   0  0  0  1  0  0  0  0  0  0  0  0
   -2.5578    3.6167    4.2000 O   0  0  0  1  0  0  0  0  0  0  0  0
   -2.9460    1.4281    3.7833 N   0  0  0  1  0  0  0  0  0  0  0  0
   -0.5638    0.4165    2.4556 H   0  0  0  1  0  0  0  0  0  0  0  0
    0.7556    1.1403    3.7924 C   0  0  0  1  0  0  0  0  0  0  0  0
   -4.2577    1.3981    4.4128 C   0  0  0  1  0  0  0  0  0  0  0  0
    1.3914   -0.2286    3.9381 C   0  0  0  1  0  0  0  0  0  0  0  0
    1.1811    2.1113    4.4161 O   0  0  0  1  0  0  0  0  0  0  0  0
   -2.5660    0.5917    3.4420 H   0  0  0  1  0  0  0  0  0  0  0  0
   -4.8243    2.2497    4.0986 H   0  0  0  1  0  0  0  0  0  0  0  0
   -4.1432    1.4190    5.4765 H   0  0  0  1  0  0  0  0  0  0  0  0
   -4.7702    0.5036    4.1263 H   0  0  0  1  0  0  0  0  0  0  0  0
    1.9147   -0.4770    3.0385 H   0  0  0  1  0  0  0  0  0  0  0  0
    0.6298   -0.9577    4.1204 H   0  0  0  1  0  0  0  0  0  0  0  0
    2.0784   -0.2170    4.7584 H   0  0  0  1  0  0  0  0  0  0  0  0
   -1.3985    2.7051    1.3178 C   0  0  0  1  0  0  0  0  0  0  0  0
   -1.9411    4.0879    1.0740 C   0  0  0  1  0  0  0  0  0  0  0  0
   -1.0352    5.0971    0.7867 C   0  0  0  1  0  0  0  0  0  0  0  0
   -1.4840    6.3846    0.5605 C   0  0  0  1  0  0  0  0  0  0  0  0
   -2.8402    6.6658    0.6157 C   0  0  0  1  0  0  0  0  0  0  0  0
   -3.7433    5.6595    0.9022 C   0  0  0  1  0  0  0  0  0  0  0  0
   -3.2934    4.3681    1.1291 C   0  0  0  1  0  0  0  0  0  0  0  0
   -3.2925    7.9233    0.3905 O   0  0  0  1  0  0  0  0  0  0  0  0
   -0.5784    7.3551    0.2866 O   0  0  0  1  0  0  0  0  0  0  0  0
   -2.1523    1.9924    1.0554 H   0  0  0  1  0  0  0  0  0  0  0  0
   -0.5395    2.5618    0.6961 H   0  0  0  1  0  0  0  0  0  0  0  0
   -0.0179    4.8854    0.7413 H   0  0  0  1  0  0  0  0  0  0  0  0
   -4.7605    5.8712    0.9476 H   0  0  0  1  0  0  0  0  0  0  0  0
   -3.9733    3.6102    1.3407 H   0  0  0  1  0  0  0  0  0  0  0  0
   -3.5103    8.3402    1.2275 H   0  0  0  1  0  0  0  0  0  0  0  0
   -0.6106    8.0261    0.9723 H   0  0  0  1  0  0  0  0  0  0  0  0
  1  4  1  0  0  0  0
  2  4  1  0  0  0  0
  2  5  2  0  0  0  0
  2  6  1  0  0  0  0
  3  4  1  0  0  0  0
  3  7  1  0  0  0  0
  3  8  1  0  0  0  0
  4 19  1  0  0  0  0
  6  9  1  0  0  0  0
  6 12  1  0  0  0  0
  8 10  1  0  0  0  0
  8 11  2  0  0  0  0
  9 13  1  0  0  0  0
  9 14  1  0  0  0  0
  9 15  1  0  0  0  0
 10 16  1  0  0  0  0
 10 17  1  0  0  0  0
 10 18  1  0  0  0  0
 19 20  1  0  0  0  0
 19 28  1  0  0  0  0
 19 29  1  0  0  0  0
 20 21  4  0  0  0  0
 20 25  4  0  0  0  0
 21 22  4  0  0  0  0
 21 30  1  0  0  0  0
 22 23  4  0  0  0  0
 22 27  1  0  0  0  0
 23 24  4  0  0  0  0
 23 26  1  0  0  0  0
 24 25  4  0  0  0  0
 24 31  1  0  0  0  0
 25 32  1  0  0  0  0
 26 33  1  0  0  0  0
 27 34  1  0  0  0  0
M  END
> <BCLConfClusterSize>
1

> <ConfClashScore>
0 

> <ConfOneFourInteractionScore>
-0.960318 

> <ConfScore>
-0.032958 

> <ConfScorePBest>
0.00487184 

> <ConfTolerance>
0.57688 

> <RosettaParamsInstructions>
M  ROOT 3
M  POLY_N_BB 3
M  POLY_CA_BB 4
M  POLY_C_BB 2
M  POLY_O_BB 5
M  POLY_IGNORE 9 10 11 12 13 14 15 16 17 18 
M  POLY_UPPER 6
M  POLY_LOWER 8
M  POLY_CHG 0
M  POLY_PROPERTIES ALPHA_AA L_AA PROTEIN AROMATIC POLYMER 
M  END

$$$$



 34 34  0  0  0  0  0  0  0  0999 V2000
   -2.2784    1.9563   -0.7075 H   0  0  0  1  0  0  0  0  0  0  0  0
   -0.3615    2.7372   -1.1558 C   0  0  0  1  0  0  0  0  0  0  0  0
   -0.8525    0.5866   -0.1026 N   0  0  0  1  0  0  0  0  0  0  0  0
   -1.3114    1.9598   -0.2495 C   0  0  0  1  0  0  0  0  0  0  0  0
    0.8410    2.7980   -0.9052 O   0  0  0  1  0  0  0  0  0  0  0  0
   -0.8749    3.3481   -2.2273 N   0  0  0  1  0  0  0  0  0  0  0  0
   -0.7597    0.2128    0.7986 H   0  0  0  1  0  0  0  0  0  0  0  0
   -0.5422   -0.2113   -1.1932 C   0  0  0  1  0  0  0  0  0  0  0  0
   -0.0458    4.0619   -3.1869 C   0  0  0  1  0  0  0  0  0  0  0  0
   -0.1305   -1.6380   -0.9610 C   0  0  0  1  0  0  0  0  0  0  0  0
   -0.6139    0.2729   -2.3080 O   0  0  0  1  0  0  0  0  0  0  0  0
   -1.8436    3.3143   -2.3721 H   0  0  0  1  0  0  0  0  0  0  0  0
    0.8887    4.3164   -2.7320 H   0  0  0  1  0  0  0  0  0  0  0  0
   -0.5468    4.9555   -3.4957 H   0  0  0  1  0  0  0  0  0  0  0  0
    0.1305    3.4388   -4.0387 H   0  0  0  1  0  0  0  0  0  0  0  0
    0.6224   -1.6734   -0.2015 H   0  0  0  1  0  0  0  0  0  0  0  0
    0.2593   -2.0488   -1.8688 H   0  0  0  1  0  0  0  0  0  0  0  0
   -0.9803   -2.2075   -0.6472 H   0  0  0  1  0  0  0  0  0  0  0  0
   -1.4331    2.6406    1.1076 C   0  0  0  1  0  0  0  0  0  0  0  0
   -1.9413    4.0545    1.0145 C   0  0  0  1  0  0  0  0  0  0  0  0
   -1.0510    5.1006    0.8284 C   0  0  0  1  0  0  0  0  0  0  0  0
   -1.5178    6.3991    0.7484 C   0  0  0  1  0  0  0  0  0  0  0  0
   -2.8765    6.6548    0.8489 C   0  0  0  1  0  0  0  0  0  0  0  0
   -3.7639    5.6116    1.0344 C   0  0  0  1  0  0  0  0  0  0  0  0
   -3.2960    4.3093    1.1147 C   0  0  0  1  0  0  0  0  0  0  0  0
   -3.3820    7.9098    0.7713 O   0  0  0  1  0  0  0  0  0  0  0  0
   -0.6273    7.4053    0.5715 O   0  0  0  1  0  0  0  0  0  0  0  0
   -0.4679    2.6552    1.5691 H   0  0  0  1  0  0  0  0  0  0  0  0
   -2.1100    2.0746    1.7130 H   0  0  0  1  0  0  0  0  0  0  0  0
   -0.0320    4.9085    0.7490 H   0  0  0  1  0  0  0  0  0  0  0  0
   -4.7829    5.8038    1.1138 H   0  0  0  1  0  0  0  0  0  0  0  0
   -3.9642    3.5240    1.2503 H   0  0  0  1  0  0  0  0  0  0  0  0
   -2.8306    8.4422    0.1933 H   0  0  0  1  0  0  0  0  0  0  0  0
   -0.9807    8.2155    0.9461 H   0  0  0  1  0  0  0  0  0  0  0  0
  1  4  1  0  0  0  0
  2  4  1  0  0  0  0
  2  5  2  0  0  0  0
  2  6  1  0  0  0  0
  3  4  1  0  0  0  0
  3  7  1  0  0  0  0
  3  8  1  0  0  0  0
  4 19  1  0  0  0  0
  6  9  1  0  0  0  0
  6 12  1  0  0  0  0
  8 10  1  0  0  0  0
  8 11  2  0  0  0  0
  9 13  1  0  0  0  0
  9 14  1  0  0  0  0
  9 15  1  0  0  0  0
 10 16  1  0  0  0  0
 10 17  1  0  0  0  0
 10 18  1  0  0  0  0
 19 20  1  0  0  0  0
 19 28  1  0  0  0  0
 19 29  1  0  0  0  0
 20 21  4  0  0  0  0
 20 25  4  0  0  0  0
 21 22  4  0  0  0  0
 21 30  1  0  0  0  0
 22 23  4  0  0  0  0
 22 27  1  0  0  0  0
 23 24  4  0  0  0  0
 23 26  1  0  0  0  0
 24 25  4  0  0  0  0
 24 31  1  0  0  0  0
 25 32  1  0  0  0  0
 26 33  1  0  0  0  0
 27 34  1  0  0  0  0
M  END
> <BCLConfClusterSize>
1

> <ConfClashScore>
0 

> <ConfOneFourInteractionScore>
-0.985807 

> <ConfScore>
-0.0304947 

> <ConfScorePBest>
0.00484336 

> <ConfTolerance>
0.266778 

> <RosettaParamsInstructions>
M  ROOT 3
M  POLY_N_BB 3
M  POLY_CA_BB 4
M  POLY_C_BB 2
M  POLY_O_BB 5
M  POLY_IGNORE 9 10 11 12 13 14 15 16 17 18 
M  POLY_UPPER 6
M  POLY_LOWER 8
M  POLY_CHG 0
M  POLY_PROPERTIES ALPHA_AA L_AA PROTEIN AROMATIC POLYMER 
M  END

$$$$



 34 34  0  0  0  0  0  0  0  0999 V2000
   -0.0597    2.7933    2.6534 H   0  0  0  1  0  0  0  0  0  0  0  0
   -1.9999    2.5399    3.4449 C   0  0  0  1  0  0  0  0  0  0  0  0
   -0.6233    0.8180    2.4009 N   0  0  0  1  0  0  0  0  0  0  0  0
   -0.9411    2.2415    2.4013 C   0  0  0  1  0  0  0  0  0  0  0  0
   -3.1253    2.0483    3.3713 O   0  0  0  1  0  0  0  0  0  0  0  0
   -1.6258    3.3645    4.4360 N   0  0  0  1  0  0  0  0  0  0  0  0
   -0.8205    0.2896    1.5994 H   0  0  0  1  0  0  0  0  0  0  0  0
   -0.0728    0.2093    3.4551 C   0  0  0  1  0  0  0  0  0  0  0  0
   -2.5872    3.7716    5.4499 C   0  0  0  1  0  0  0  0  0  0  0  0
    0.2653   -1.2568    3.2669 C   0  0  0  1  0  0  0  0  0  0  0  0
    0.1529    0.7851    4.5187 O   0  0  0  1  0  0  0  0  0  0  0  0
   -0.7034    3.6929    4.4770 H   0  0  0  1  0  0  0  0  0  0  0  0
   -3.5669    3.8035    5.0208 H   0  0  0  1  0  0  0  0  0  0  0  0
   -2.3276    4.7422    5.8179 H   0  0  0  1  0  0  0  0  0  0  0  0
   -2.5740    3.0685    6.2563 H   0  0  0  1  0  0  0  0  0  0  0  0
    0.7205   -1.3982    2.3089 H   0  0  0  1  0  0  0  0  0  0  0  0
   -0.6302   -1.8395    3.3255 H   0  0  0  1  0  0  0  0  0  0  0  0
    0.9442   -1.5673    4.0334 H   0  0  0  1  0  0  0  0  0  0  0  0
   -1.4048    2.6956    1.0235 C   0  0  0  1  0  0  0  0  0  0  0  0
   -1.9273    4.1073    1.0127 C   0  0  0  1  0  0  0  0  0  0  0  0
   -1.0706    5.1692    0.7677 C   0  0  0  1  0  0  0  0  0  0  0  0
   -1.5714    6.4542    0.6768 C   0  0  0  1  0  0  0  0  0  0  0  0
   -2.9309    6.6805    0.8253 C   0  0  0  1  0  0  0  0  0  0  0  0
   -3.7849    5.6216    1.0696 C   0  0  0  1  0  0  0  0  0  0  0  0
   -3.2828    4.3328    1.1608 C   0  0  0  1  0  0  0  0  0  0  0  0
   -3.5489    7.8845    0.7544 O   0  0  0  1  0  0  0  0  0  0  0  0
   -0.7132    7.4764    0.4419 O   0  0  0  1  0  0  0  0  0  0  0  0
   -2.1847    2.0413    0.6939 H   0  0  0  1  0  0  0  0  0  0  0  0
   -0.5773    2.6336    0.3480 H   0  0  0  1  0  0  0  0  0  0  0  0
   -0.0511    4.9990    0.6523 H   0  0  0  1  0  0  0  0  0  0  0  0
   -4.8044    5.7918    1.1850 H   0  0  0  1  0  0  0  0  0  0  0  0
   -3.9260    3.5356    1.3406 H   0  0  0  1  0  0  0  0  0  0  0  0
   -3.1037    8.4356    0.1065 H   0  0  0  1  0  0  0  0  0  0  0  0
   -0.3591    7.7955    1.2752 H   0  0  0  1  0  0  0  0  0  0  0  0
  1  4  1  0  0  0  0
  2  4  1  0  0  0  0
  2  5  2  0  0  0  0
  2  6  1  0  0  0  0
  3  4  1  0  0  0  0
  3  7  1  0  0  0  0
  3  8  1  0  0  0  0
  4 19  1  0  0  0  0
  6  9  1  0  0  0  0
  6 12  1  0  0  0  0
  8 10  1  0  0  0  0
  8 11  2  0  0  0  0
  9 13  1  0  0  0  0
  9 14  1  0  0  0  0
  9 15  1  0  0  0  0
 10 16  1  0  0  0  0
 10 17  1  0  0  0  0
 10 18  1  0  0  0  0
 19 20  1  0  0  0  0
 19 28  1  0  0  0  0
 19 29  1  0  0  0  0
 20 21  4  0  0  0  0
 20 25  4  0  0  0  0
 21 22  4  0  0  0  0
 21 30  1  0  0  0  0
 22 23  4  0  0  0  0
 22 27  1  0  0  0  0
 23 24  4  0  0  0  0
 23 26  1  0  0  0  0
 24 25  4  0  0  0  0
 24 31  1  0  0  0  0
 25 32  1  0  0  0  0
 26 33  1  0  0  0  0
 27 34  1  0  0  0  0
M  END
> <BCLConfClusterSize>
1

> <ConfClashScore>
0 

> <ConfOneFourInteractionScore>
-0.985807 

> <ConfScore>
-0.0292713 

> <ConfScorePBest>
0.00481488 

> <ConfTolerance>
0.293911 

> <RosettaParamsInstructions>
M  ROOT 3
M  POLY_N_BB 3
M  POLY_CA_BB 4
M  POLY_C_BB 2
M  POLY_O_BB 5
M  POLY_IGNORE 9 10 11 12 13 14 15 16 17 18 
M  POLY_UPPER 6
M  POLY_LOWER 8
M  POLY_CHG 0
M  POLY_PROPERTIES ALPHA_AA L_AA PROTEIN AROMATIC POLYMER 
M  END

$$$$



 34 34  0  0  0  0  0  0  0  0999 V2000
   -2.0430    1.9615   -0.5627 H   0  0  0  1  0  0  0  0  0  0  0  0
   -1.3422    0.3391    0.6069 C   0  0  0  1  0  0  0  0  0  0  0  0
   -3.4812    1.4977    0.8608 N   0  0  0  1  0  0  0  0  0  0  0  0
   -2.0905    1.6496    0.4597 C   0  0  0  1  0  0  0  0  0  0  0  0
   -0.4178    0.0511   -0.1353 O   0  0  0  1  0  0  0  0  0  0  0  0
   -1.7612   -0.4603    1.5891 N   0  0  0  1  0  0  0  0  0  0  0  0
   -3.7218    1.6464    1.7991 H   0  0  0  1  0  0  0  0  0  0  0  0
   -4.4494    1.1596   -0.0130 C   0  0  0  1  0  0  0  0  0  0  0  0
   -1.1739   -1.7700    1.8294 C   0  0  0  1  0  0  0  0  0  0  0  0
   -5.8073    0.9565    0.6306 C   0  0  0  1  0  0  0  0  0  0  0  0
   -4.2827    1.0207   -1.2218 O   0  0  0  1  0  0  0  0  0  0  0  0
   -2.4899   -0.1551    2.1689 H   0  0  0  1  0  0  0  0  0  0  0  0
   -0.8137   -2.1747    0.9067 H   0  0  0  1  0  0  0  0  0  0  0  0
   -1.9153   -2.4232    2.2398 H   0  0  0  1  0  0  0  0  0  0  0  0
   -0.3608   -1.6749    2.5184 H   0  0  0  1  0  0  0  0  0  0  0  0
   -6.3187    1.8946    0.6891 H   0  0  0  1  0  0  0  0  0  0  0  0
   -5.6790    0.5585    1.6154 H   0  0  0  1  0  0  0  0  0  0  0  0
   -6.3824    0.2732    0.0413 H   0  0  0  1  0  0  0  0  0  0  0  0
   -1.4116    2.7059    1.3218 C   0  0  0  1  0  0  0  0  0  0  0  0
   -1.9316    4.0959    1.0701 C   0  0  0  1  0  0  0  0  0  0  0  0
   -1.0488    5.1253    0.7826 C   0  0  0  1  0  0  0  0  0  0  0  0
   -1.5267    6.4024    0.5569 C   0  0  0  1  0  0  0  0  0  0  0  0
   -2.8889    6.6529    0.6127 C   0  0  0  1  0  0  0  0  0  0  0  0
   -3.7689    5.6264    0.8993 C   0  0  0  1  0  0  0  0  0  0  0  0
   -3.2899    4.3455    1.1257 C   0  0  0  1  0  0  0  0  0  0  0  0
   -3.3332    7.9123    0.3824 O   0  0  0  1  0  0  0  0  0  0  0  0
   -0.6434    7.3931    0.2829 O   0  0  0  1  0  0  0  0  0  0  0  0
   -0.3621    2.6921    1.1139 H   0  0  0  1  0  0  0  0  0  0  0  0
   -1.5751    2.4622    2.3508 H   0  0  0  1  0  0  0  0  0  0  0  0
   -0.0271    4.9366    0.7368 H   0  0  0  1  0  0  0  0  0  0  0  0
   -4.7906    5.8151    0.9451 H   0  0  0  1  0  0  0  0  0  0  0  0
   -3.9525    3.5724    1.3374 H   0  0  0  1  0  0  0  0  0  0  0  0
   -3.2952    8.4194    1.1967 H   0  0  0  1  0  0  0  0  0  0  0  0
   -0.5707    7.9765    1.0418 H   0  0  0  1  0  0  0  0  0  0  0  0
  1  4  1  0  0  0  0
  2  4  1  0  0  0  0
  2  5  2  0  0  0  0
  2  6  1  0  0  0  0
  3  4  1  0  0  0  0
  3  7  1  0  0  0  0
  3  8  1  0  0  0  0
  4 19  1  0  0  0  0
  6  9  1  0  0  0  0
  6 12  1  0  0  0  0
  8 10  1  0  0  0  0
  8 11  2  0  0  0  0
  9 13  1  0  0  0  0
  9 14  1  0  0  0  0
  9 15  1  0  0  0  0
 10 16  1  0  0  0  0
 10 17  1  0  0  0  0
 10 18  1  0  0  0  0
 19 20  1  0  0  0  0
 19 28  1  0  0  0  0
 19 29  1  0  0  0  0
 20 21  4  0  0  0  0
 20 25  4  0  0  0  0
 21 22  4  0  0  0  0
 21 30  1  0  0  0  0
 22 23  4  0  0  0  0
 22 27  1  0  0  0  0
 23 24  4  0  0  0  0
 23 26  1  0  0  0  0
 24 25  4  0  0  0  0
 24 31  1  0  0  0  0
 25 32  1  0  0  0  0
 26 33  1  0  0  0  0
 27 34  1  0  0  0  0
M  END
> <BCLConfClusterSize>
1

> <ConfClashScore>
0 

> <ConfOneFourInteractionScore>
-0.956443 

> <ConfScore>
-0.0277649 

> <ConfScorePBest>
0.00478639 

> <ConfTolerance>
0.442793 

> <RosettaParamsInstructions>
M  ROOT 3
M  POLY_N_BB 3
M  POLY_CA_BB 4
M  POLY_C_BB 2
M  POLY_O_BB 5
M  POLY_IGNORE 9 10 11 12 13 14 15 16 17 18 
M  POLY_UPPER 6
M  POLY_LOWER 8
M  POLY_CHG 0
M  POLY_PROPERTIES ALPHA_AA L_AA PROTEIN AROMATIC POLYMER 
M  END

$$$$



 34 34  0  0  0  0  0  0  0  0999 V2000
   -0.7798    2.6204   -1.0040 H   0  0  0  1  0  0  0  0  0  0  0  0
   -0.7953    0.6354   -0.3218 C   0  0  0  1  0  0  0  0  0  0  0  0
   -2.7266    1.9791   -1.0370 N   0  0  0  1  0  0  0  0  0  0  0  0
   -1.4225    2.0222   -0.3925 C   0  0  0  1  0  0  0  0  0  0  0  0
   -1.4893   -0.3799   -0.3254 O   0  0  0  1  0  0  0  0  0  0  0  0
    0.5367    0.6044   -0.2570 N   0  0  0  1  0  0  0  0  0  0  0  0
   -3.4658    2.4878   -0.6432 H   0  0  0  1  0  0  0  0  0  0  0  0
   -2.9532    1.2631   -2.1579 C   0  0  0  1  0  0  0  0  0  0  0  0
    1.3381   -0.6063   -0.1584 C   0  0  0  1  0  0  0  0  0  0  0  0
   -4.3036    1.4042   -2.8330 C   0  0  0  1  0  0  0  0  0  0  0  0
   -2.0913    0.5171   -2.6206 O   0  0  0  1  0  0  0  0  0  0  0  0
    1.0113    1.4616   -0.2773 H   0  0  0  1  0  0  0  0  0  0  0  0
    1.9925   -0.6712   -1.0025 H   0  0  0  1  0  0  0  0  0  0  0  0
    0.6933   -1.4601   -0.1409 H   0  0  0  1  0  0  0  0  0  0  0  0
    1.9177   -0.5779    0.7405 H   0  0  0  1  0  0  0  0  0  0  0  0
   -4.1689    1.7778   -3.8266 H   0  0  0  1  0  0  0  0  0  0  0  0
   -4.9114    2.0857   -2.2753 H   0  0  0  1  0  0  0  0  0  0  0  0
   -4.7834    0.4487   -2.8735 H   0  0  0  1  0  0  0  0  0  0  0  0
   -1.4709    2.6883    0.9764 C   0  0  0  1  0  0  0  0  0  0  0  0
   -1.9340    4.1206    0.9810 C   0  0  0  1  0  0  0  0  0  0  0  0
   -1.0088    5.1489    0.8902 C   0  0  0  1  0  0  0  0  0  0  0  0
   -1.4344    6.4639    0.8999 C   0  0  0  1  0  0  0  0  0  0  0  0
   -2.7864    6.7543    0.9949 C   0  0  0  1  0  0  0  0  0  0  0  0
   -3.7086    5.7289    1.0854 C   0  0  0  1  0  0  0  0  0  0  0  0
   -3.2821    4.4100    1.0757 C   0  0  0  1  0  0  0  0  0  0  0  0
   -3.2520    8.0271    1.0031 O   0  0  0  1  0  0  0  0  0  0  0  0
   -0.5104    7.4518    0.8153 O   0  0  0  1  0  0  0  0  0  0  0  0
   -0.4858    2.6585    1.3929 H   0  0  0  1  0  0  0  0  0  0  0  0
   -2.1373    2.1239    1.5946 H   0  0  0  1  0  0  0  0  0  0  0  0
    0.0053    4.9310    0.8149 H   0  0  0  1  0  0  0  0  0  0  0  0
   -4.7228    5.9469    1.1608 H   0  0  0  1  0  0  0  0  0  0  0  0
   -3.9765    3.6384    1.1398 H   0  0  0  1  0  0  0  0  0  0  0  0
   -4.1037    8.0596    0.5614 H   0  0  0  1  0  0  0  0  0  0  0  0
   -0.2939    7.6100   -0.1065 H   0  0  0  1  0  0  0  0  0  0  0  0
  1  4  1  0  0  0  0
  2  4  1  0  0  0  0
  2  5  2  0  0  0  0
  2  6  1  0  0  0  0
  3  4  1  0  0  0  0
  3  7  1  0  0  0  0
  3  8  1  0  0  0  0
  4 19  1  0  0  0  0
  6  9  1  0  0  0  0
  6 12  1  0  0  0  0
  8 10  1  0  0  0  0
  8 11  2  0  0  0  0
  9 13  1  0  0  0  0
  9 14  1  0  0  0  0
  9 15  1  0  0  0  0
 10 16  1  0  0  0  0
 10 17  1  0  0  0  0
 10 18  1  0  0  0  0
 19 20  1  0  0  0  0
 19 28  1  0  0  0  0
 19 29  1  0  0  0  0
 20 21  4  0  0  0  0
 20 25  4  0  0  0  0
 21 22  4  0  0  0  0
 21 30  1  0  0  0  0
 22 23  4  0  0  0  0
 22 27  1  0  0  0  0
 23 24  4  0  0  0  0
 23 26  1  0  0  0  0
 24 25  4  0  0  0  0
 24 31  1  0  0  0  0
 25 32  1  0  0  0  0
 26 33  1  0  0  0  0
 27 34  1  0  0  0  0
M  END
> <BCLConfClusterSize>
1

> <ConfClashScore>
0 

> <ConfOneFourInteractionScore>
-0.985807 

> <ConfScore>
-0.0277125 

> <ConfScorePBest>
0.00475791 

> <ConfTolerance>
0.531948 

> <RosettaParamsInstructions>
M  ROOT 3
M  POLY_N_BB 3
M  POLY_CA_BB 4
M  POLY_C_BB 2
M  POLY_O_BB 5
M  POLY_IGNORE 9 10 11 12 13 14 15 16 17 18 
M  POLY_UPPER 6
M  POLY_LOWER 8
M  POLY_CHG 0
M  POLY_PROPERTIES ALPHA_AA L_AA PROTEIN AROMATIC POLYMER 
M  END

$$$$



 34 34  0  0  0  0  0  0  0  0999 V2000
    0.6405    3.4673    1.5835 H   0  0  0  1  0  0  0  0  0  0  0  0
    0.8449    1.4261    1.1595 C   0  0  0  1  0  0  0  0  0  0  0  0
    0.5480    3.3072   -0.4624 N   0  0  0  1  0  0  0  0  0  0  0  0
    0.2474    2.7825    0.8613 C   0  0  0  1  0  0  0  0  0  0  0  0
    1.3871    1.1993    2.2404 O   0  0  0  1  0  0  0  0  0  0  0  0
    0.7663    0.4838    0.2157 N   0  0  0  1  0  0  0  0  0  0  0  0
   -0.0518    3.0569   -1.1959 H   0  0  0  1  0  0  0  0  0  0  0  0
    1.5887    4.1110   -0.7554 C   0  0  0  1  0  0  0  0  0  0  0  0
    1.2089   -0.8844    0.4438 C   0  0  0  1  0  0  0  0  0  0  0  0
    1.7510    4.3817   -2.2385 C   0  0  0  1  0  0  0  0  0  0  0  0
    2.3531    4.5957    0.0748 O   0  0  0  1  0  0  0  0  0  0  0  0
    0.3978    0.7218   -0.6607 H   0  0  0  1  0  0  0  0  0  0  0  0
    0.6136   -1.3287    1.2139 H   0  0  0  1  0  0  0  0  0  0  0  0
    2.2359   -0.8814    0.7442 H   0  0  0  1  0  0  0  0  0  0  0  0
    1.1026   -1.4486   -0.4592 H   0  0  0  1  0  0  0  0  0  0  0  0
    2.7584    4.1718   -2.5318 H   0  0  0  1  0  0  0  0  0  0  0  0
    1.5278    5.4086   -2.4399 H   0  0  0  1  0  0  0  0  0  0  0  0
    1.0814    3.7557   -2.7905 H   0  0  0  1  0  0  0  0  0  0  0  0
   -1.2705    2.7632    1.0433 C   0  0  0  1  0  0  0  0  0  0  0  0
   -1.9488    4.1171    0.9866 C   0  0  0  1  0  0  0  0  0  0  0  0
   -1.1110    5.1996    0.7678 C   0  0  0  1  0  0  0  0  0  0  0  0
   -1.6347    6.4771    0.7051 C   0  0  0  1  0  0  0  0  0  0  0  0
   -2.9983    6.6754    0.8557 C   0  0  0  1  0  0  0  0  0  0  0  0
   -3.8336    5.5961    1.0738 C   0  0  0  1  0  0  0  0  0  0  0  0
   -3.3085    4.3147    1.1367 C   0  0  0  1  0  0  0  0  0  0  0  0
   -3.4884    7.9370    0.7850 O   0  0  0  1  0  0  0  0  0  0  0  0
   -0.8557    7.5666    0.4984 O   0  0  0  1  0  0  0  0  0  0  0  0
   -1.4830    2.3272    1.9970 H   0  0  0  1  0  0  0  0  0  0  0  0
   -1.6878    2.1522    0.2703 H   0  0  0  1  0  0  0  0  0  0  0  0
   -0.0884    5.0504    0.6508 H   0  0  0  1  0  0  0  0  0  0  0  0
   -4.8561    5.7453    1.1908 H   0  0  0  1  0  0  0  0  0  0  0  0
   -3.9376    3.5022    1.2969 H   0  0  0  1  0  0  0  0  0  0  0  0
   -2.9860    8.4403    0.1402 H   0  0  0  1  0  0  0  0  0  0  0  0
   -0.1617    7.5947    1.1611 H   0  0  0  1  0  0  0  0  0  0  0  0
  1  4  1  0  0  0  0
  2  4  1  0  0  0  0
  2  5  2  0  0  0  0
  2  6  1  0  0  0  0
  3  4  1  0  0  0  0
  3  7  1  0  0  0  0
  3  8  1  0  0  0  0
  4 19  1  0  0  0  0
  6  9  1  0  0  0  0
  6 12  1  0  0  0  0
  8 10  1  0  0  0  0
  8 11  2  0  0  0  0
  9 13  1  0  0  0  0
  9 14  1  0  0  0  0
  9 15  1  0  0  0  0
 10 16  1  0  0  0  0
 10 17  1  0  0  0  0
 10 18  1  0  0  0  0
 19 20  1  0  0  0  0
 19 28  1  0  0  0  0
 19 29  1  0  0  0  0
 20 21  4  0  0  0  0
 20 25  4  0  0  0  0
 21 22  4  0  0  0  0
 21 30  1  0  0  0  0
 22 23  4  0  0  0  0
 22 27  1  0  0  0  0
 23 24  4  0  0  0  0
 23 26  1  0  0  0  0
 24 25  4  0  0  0  0
 24 31  1  0  0  0  0
 25 32  1  0  0  0  0
 26 33  1  0  0  0  0
 27 34  1  0  0  0  0
M  END
> <BCLConfClusterSize>
1

> <ConfClashScore>
0 

> <ConfOneFourInteractionScore>
-0.949001 

> <ConfScore>
-0.0244113 

> <ConfScorePBest>
0.00472943 

> <ConfTolerance>
0.503952 

> <RosettaParamsInstructions>
M  ROOT 3
M  POLY_N_BB 3
M  POLY_CA_BB 4
M  POLY_C_BB 2
M  POLY_O_BB 5
M  POLY_IGNORE 9 10 11 12 13 14 15 16 17 18 
M  POLY_UPPER 6
M  POLY_LOWER 8
M  POLY_CHG 0
M  POLY_PROPERTIES ALPHA_AA L_AA PROTEIN AROMATIC POLYMER 
M  END

$$$$



 34 34  0  0  0  0  0  0  0  0999 V2000
   -0.8098    1.3348    2.5750 H   0  0  0  1  0  0  0  0  0  0  0  0
    0.4091    2.9783    2.9870 C   0  0  0  1  0  0  0  0  0  0  0  0
   -1.9938    2.7419    3.5029 N   0  0  0  1  0  0  0  0  0  0  0  0
   -0.9207    2.3987    2.5457 C   0  0  0  1  0  0  0  0  0  0  0  0
    0.4779    4.0850    3.5199 O   0  0  0  1  0  0  0  0  0  0  0  0
    1.4853    2.2093    2.7576 N   0  0  0  1  0  0  0  0  0  0  0  0
   -1.8897    3.5652    4.0242 H   0  0  0  1  0  0  0  0  0  0  0  0
   -3.0948    2.0141    3.7108 C   0  0  0  1  0  0  0  0  0  0  0  0
    2.8408    2.6728    3.0139 C   0  0  0  1  0  0  0  0  0  0  0  0
   -4.1786    2.6803    4.5360 C   0  0  0  1  0  0  0  0  0  0  0  0
   -3.2382    0.8749    3.2691 O   0  0  0  1  0  0  0  0  0  0  0  0
    1.3536    1.3043    2.4053 H   0  0  0  1  0  0  0  0  0  0  0  0
    2.8977    3.7263    2.8357 H   0  0  0  1  0  0  0  0  0  0  0  0
    3.5206    2.1640    2.3628 H   0  0  0  1  0  0  0  0  0  0  0  0
    3.1008    2.4689    4.0316 H   0  0  0  1  0  0  0  0  0  0  0  0
   -4.1087    3.7424    4.4268 H   0  0  0  1  0  0  0  0  0  0  0  0
   -4.0537    2.4189    5.5660 H   0  0  0  1  0  0  0  0  0  0  0  0
   -5.1383    2.3496    4.1974 H   0  0  0  1  0  0  0  0  0  0  0  0
   -1.3452    2.7440    1.1243 C   0  0  0  1  0  0  0  0  0  0  0  0
   -1.9263    4.1273    1.0021 C   0  0  0  1  0  0  0  0  0  0  0  0
   -1.0949    5.2101    0.7616 C   0  0  0  1  0  0  0  0  0  0  0  0
   -1.6286    6.4806    0.6548 C   0  0  0  1  0  0  0  0  0  0  0  0
   -2.9956    6.6713    0.7829 C   0  0  0  1  0  0  0  0  0  0  0  0
   -3.8244    5.5916    1.0227 C   0  0  0  1  0  0  0  0  0  0  0  0
   -3.2894    4.3173    1.1298 C   0  0  0  1  0  0  0  0  0  0  0  0
   -3.6076    7.8768    0.6883 O   0  0  0  1  0  0  0  0  0  0  0  0
   -0.7554    7.4911    0.4246 O   0  0  0  1  0  0  0  0  0  0  0  0
   -2.0820    2.0359    0.8074 H   0  0  0  1  0  0  0  0  0  0  0  0
   -0.4882    2.6772    0.4872 H   0  0  0  1  0  0  0  0  0  0  0  0
   -0.0698    5.0666    0.6615 H   0  0  0  1  0  0  0  0  0  0  0  0
   -4.8495    5.7351    1.1228 H   0  0  0  1  0  0  0  0  0  0  0  0
   -3.9135    3.5043    1.3063 H   0  0  0  1  0  0  0  0  0  0  0  0
   -2.9707    8.5384    0.4086 H   0  0  0  1  0  0  0  0  0  0  0  0
   -0.2082    7.6251    1.2019 H   0  0  0  1  0  0  0  0  0  0  0  0
  1  4  1  0  0  0  0
  2  4  1  0  0  0  0
  2  5  2  0  0  0  0
  2  6  1  0  0  0  0
  3  4  1  0  0  0  0
  3  7  1  0  0  0  0
  3  8  1  0  0  0  0
  4 19  1  0  0  0  0
  6  9  1  0  0  0  0
  6 12  1  0  0  0  0
  8 10  1  0  0  0  0
  8 11  2  0  0  0  0
  9 13  1  0  0  0  0
  9 14  1  0  0  0  0
  9 15  1  0  0  0  0
 10 16  1  0  0  0  0
 10 17  1  0  0  0  0
 10 18  1  0  0  0  0
 19 20  1  0  0  0  0
 19 28  1  0  0  0  0
 19 29  1  0  0  0  0
 20 21  4  0  0  0  0
 20 25  4  0  0  0  0
 21 22  4  0  0  0  0
 21 30  1  0  0  0  0
 22 23  4  0  0  0  0
 22 27  1  0  0  0  0
 23 24  4  0  0  0  0
 23 26  1  0  0  0  0
 24 25  4  0  0  0  0
 24 31  1  0  0  0  0
 25 32  1  0  0  0  0
 26 33  1  0  0  0  0
 27 34  1  0  0  0  0
M  END
> <BCLConfClusterSize>
1

> <ConfClashScore>
0 

> <ConfOneFourInteractionScore>
-0.980789 

> <ConfScore>
-0.0230694 

> <ConfScorePBest>
0.00470095 

> <ConfTolerance>
0.562593 

> <RosettaParamsInstructions>
M  ROOT 3
M  POLY_N_BB 3
M  POLY_CA_BB 4
M  POLY_C_BB 2
M  POLY_O_BB 5
M  POLY_IGNORE 9 10 11 12 13 14 15 16 17 18 
M  POLY_UPPER 6
M  POLY_LOWER 8
M  POLY_CHG 0
M  POLY_PROPERTIES ALPHA_AA L_AA PROTEIN AROMATIC POLYMER 
M  END

$$$$



 34 34  0  0  0  0  0  0  0  0999 V2000
   -2.4970    2.1677    2.9050 H   0  0  0  1  0  0  0  0  0  0  0  0
   -0.9006    0.8144    2.8312 C   0  0  0  1  0  0  0  0  0  0  0  0
   -0.7951    3.1591    3.5372 N   0  0  0  1  0  0  0  0  0  0  0  0
   -1.4632    2.2035    2.6317 C   0  0  0  1  0  0  0  0  0  0  0  0
   -1.4508   -0.1731    2.3456 O   0  0  0  1  0  0  0  0  0  0  0  0
    0.2222    0.7395    3.5632 N   0  0  0  1  0  0  0  0  0  0  0  0
    0.1742    3.2831    3.4622 H   0  0  0  1  0  0  0  0  0  0  0  0
   -1.4724    3.8675    4.4643 C   0  0  0  1  0  0  0  0  0  0  0  0
    0.8133   -0.5558    3.8642 C   0  0  0  1  0  0  0  0  0  0  0  0
   -0.6859    4.8044    5.3603 C   0  0  0  1  0  0  0  0  0  0  0  0
   -2.6922    3.7584    4.5813 O   0  0  0  1  0  0  0  0  0  0  0  0
    0.6447    1.5589    3.8957 H   0  0  0  1  0  0  0  0  0  0  0  0
    1.7723   -0.4143    4.3170 H   0  0  0  1  0  0  0  0  0  0  0  0
    0.9255   -1.1153    2.9591 H   0  0  0  1  0  0  0  0  0  0  0  0
    0.1765   -1.0903    4.5378 H   0  0  0  1  0  0  0  0  0  0  0  0
   -1.0901    4.7747    6.3506 H   0  0  0  1  0  0  0  0  0  0  0  0
   -0.7516    5.8017    4.9783 H   0  0  0  1  0  0  0  0  0  0  0  0
    0.3390    4.4979    5.3843 H   0  0  0  1  0  0  0  0  0  0  0  0
   -1.3992    2.7206    1.1951 C   0  0  0  1  0  0  0  0  0  0  0  0
   -1.9295    4.1218    1.0486 C   0  0  0  1  0  0  0  0  0  0  0  0
   -1.0506    5.1875    0.9327 C   0  0  0  1  0  0  0  0  0  0  0  0
   -1.5383    6.4743    0.8036 C   0  0  0  1  0  0  0  0  0  0  0  0
   -2.9061    6.6987    0.7846 C   0  0  0  1  0  0  0  0  0  0  0  0
   -3.7822    5.6361    0.9002 C   0  0  0  1  0  0  0  0  0  0  0  0
   -3.2933    4.3454    1.0297 C   0  0  0  1  0  0  0  0  0  0  0  0
   -3.3596    7.9689    0.6517 O   0  0  0  1  0  0  0  0  0  0  0  0
   -0.6591    7.5002    0.6971 O   0  0  0  1  0  0  0  0  0  0  0  0
   -1.9782    2.0706    0.5730 H   0  0  0  1  0  0  0  0  0  0  0  0
   -0.3788    2.7074    0.8734 H   0  0  0  1  0  0  0  0  0  0  0  0
   -0.0245    5.0189    0.9429 H   0  0  0  1  0  0  0  0  0  0  0  0
   -4.8083    5.8048    0.8900 H   0  0  0  1  0  0  0  0  0  0  0  0
   -3.9527    3.5454    1.1126 H   0  0  0  1  0  0  0  0  0  0  0  0
   -3.4132    8.3821    1.5166 H   0  0  0  1  0  0  0  0  0  0  0  0
   -0.3626    7.5750   -0.2129 H   0  0  0  1  0  0  0  0  0  0  0  0
  1  4  1  0  0  0  0
  2  4  1  0  0  0  0
  2  5  2  0  0  0  0
  2  6  1  0  0  0  0
  3  4  1  0  0  0  0
  3  7  1  0  0  0  0
  3  8  1  0  0  0  0
  4 19  1  0  0  0  0
  6  9  1  0  0  0  0
  6 12  1  0  0  0  0
  8 10  1  0  0  0  0
  8 11  2  0  0  0  0
  9 13  1  0  0  0  0
  9 14  1  0  0  0  0
  9 15  1  0  0  0  0
 10 16  1  0  0  0  0
 10 17  1  0  0  0  0
 10 18  1  0  0  0  0
 19 20  1  0  0  0  0
 19 28  1  0  0  0  0
 19 29  1  0  0  0  0
 20 21  4  0  0  0  0
 20 25  4  0  0  0  0
 21 22  4  0  0  0  0
 21 30  1  0  0  0  0
 22 23  4  0  0  0  0
 22 27  1  0  0  0  0
 23 24  4  0  0  0  0
 23 26  1  0  0  0  0
 24 25  4  0  0  0  0
 24 31  1  0  0  0  0
 25 32  1  0  0  0  0
 26 33  1  0  0  0  0
 27 34  1  0  0  0  0
M  END
> <BCLConfClusterSize>
1

> <ConfClashScore>
0 

> <ConfOneFourInteractionScore>
-0.946346 

> <ConfScore>
-0.0224927 

> <ConfScorePBest>
0.00467247 

> <ConfTolerance>
0.364625 

> <RosettaParamsInstructions>
M  ROOT 3
M  POLY_N_BB 3
M  POLY_CA_BB 4
M  POLY_C_BB 2
M  POLY_O_BB 5
M  POLY_IGNORE 9 10 11 12 13 14 15 16 17 18 
M  POLY_UPPER 6
M  POLY_LOWER 8
M  POLY_CHG 0
M  POLY_PROPERTIES ALPHA_AA L_AA PROTEIN AROMATIC POLYMER 
M  END

$$$$



 34 34  0  0  0  0  0  0  0  0999 V2000
   -0.3060    1.5674    2.5072 H   0  0  0  1  0  0  0  0  0  0  0  0
    0.5975    3.4461    2.6734 C   0  0  0  1  0  0  0  0  0  0  0  0
   -1.5577    2.7820    3.5887 N   0  0  0  1  0  0  0  0  0  0  0  0
   -0.6367    2.5842    2.4661 C   0  0  0  1  0  0  0  0  0  0  0  0
    1.7254    3.0122    2.4426 O   0  0  0  1  0  0  0  0  0  0  0  0
    0.3707    4.6921    3.1185 N   0  0  0  1  0  0  0  0  0  0  0  0
   -2.4898    3.0185    3.3998 H   0  0  0  1  0  0  0  0  0  0  0  0
   -1.1670    2.6500    4.8733 C   0  0  0  1  0  0  0  0  0  0  0  0
    1.4490    5.6372    3.3670 C   0  0  0  1  0  0  0  0  0  0  0  0
   -2.1989    2.8825    5.9598 C   0  0  0  1  0  0  0  0  0  0  0  0
   -0.0082    2.3500    5.1575 O   0  0  0  1  0  0  0  0  0  0  0  0
   -0.5533    4.9751    3.2817 H   0  0  0  1  0  0  0  0  0  0  0  0
    2.1884    5.1796    3.9906 H   0  0  0  1  0  0  0  0  0  0  0  0
    1.0573    6.5044    3.8562 H   0  0  0  1  0  0  0  0  0  0  0  0
    1.8943    5.9225    2.4368 H   0  0  0  1  0  0  0  0  0  0  0  0
   -2.8350    3.6961    5.6800 H   0  0  0  1  0  0  0  0  0  0  0  0
   -1.7027    3.1175    6.8782 H   0  0  0  1  0  0  0  0  0  0  0  0
   -2.7871    1.9979    6.0877 H   0  0  0  1  0  0  0  0  0  0  0  0
   -1.3059    2.7637    1.1098 C   0  0  0  1  0  0  0  0  0  0  0  0
   -1.9332    4.1278    1.0005 C   0  0  0  1  0  0  0  0  0  0  0  0
   -1.0969    5.2073    0.7619 C   0  0  0  1  0  0  0  0  0  0  0  0
   -1.6247    6.4805    0.6587 C   0  0  0  1  0  0  0  0  0  0  0  0
   -2.9907    6.6773    0.7885 C   0  0  0  1  0  0  0  0  0  0  0  0
   -3.8243    5.6009    1.0264 C   0  0  0  1  0  0  0  0  0  0  0  0
   -3.2952    4.3239    1.1299 C   0  0  0  1  0  0  0  0  0  0  0  0
   -3.6341    7.8671    0.7042 O   0  0  0  1  0  0  0  0  0  0  0  0
   -0.7469    7.4874    0.4302 O   0  0  0  1  0  0  0  0  0  0  0  0
   -2.0644    2.0183    0.9913 H   0  0  0  1  0  0  0  0  0  0  0  0
   -0.5721    2.6523    0.3390 H   0  0  0  1  0  0  0  0  0  0  0  0
   -0.0725    5.0592    0.6605 H   0  0  0  1  0  0  0  0  0  0  0  0
   -4.8487    5.7491    1.1278 H   0  0  0  1  0  0  0  0  0  0  0  0
   -3.9230    3.5134    1.3049 H   0  0  0  1  0  0  0  0  0  0  0  0
   -3.0213    8.5422    0.4036 H   0  0  0  1  0  0  0  0  0  0  0  0
   -0.1616    7.5798    1.1855 H   0  0  0  1  0  0  0  0  0  0  0  0
  1  4  1  0  0  0  0
  2  4  1  0  0  0  0
  2  5  2  0  0  0  0
  2  6  1  0  0  0  0
  3  4  1  0  0  0  0
  3  7  1  0  0  0  0
  3  8  1  0  0  0  0
  4 19  1  0  0  0  0
  6  9  1  0  0  0  0
  6 12  1  0  0  0  0
  8 10  1  0  0  0  0
  8 11  2  0  0  0  0
  9 13  1  0  0  0  0
  9 14  1  0  0  0  0
  9 15  1  0  0  0  0
 10 16  1  0  0  0  0
 10 17  1  0  0  0  0
 10 18  1  0  0  0  0
 19 20  1  0  0  0  0
 19 28  1  0  0  0  0
 19 29  1  0  0  0  0
 20 21  4  0  0  0  0
 20 25  4  0  0  0  0
 21 22  4  0  0  0  0
 21 30  1  0  0  0  0
 22 23  4  0  0  0  0
 22 27  1  0  0  0  0
 23 24  4  0  0  0  0
 23 26  1  0  0  0  0
 24 25  4  0  0  0  0
 24 31  1  0  0  0  0
 25 32  1  0  0  0  0
 26 33  1  0  0  0  0
 27 34  1  0  0  0  0
M  END
> <BCLConfClusterSize>
1

> <ConfClashScore>
0 

> <ConfOneFourInteractionScore>
-0.950605 

> <ConfScore>
-0.0211077 

> <ConfScorePBest>
0.00464399 

> <ConfTolerance>
0.363689 

> <RosettaParamsInstructions>
M  ROOT 3
M  POLY_N_BB 3
M  POLY_CA_BB 4
M  POLY_C_BB 2
M  POLY_O_BB 5
M  POLY_IGNORE 9 10 11 12 13 14 15 16 17 18 
M  POLY_UPPER 6
M  POLY_LOWER 8
M  POLY_CHG 0
M  POLY_PROPERTIES ALPHA_AA L_AA PROTEIN AROMATIC POLYMER 
M  END

$$$$



 34 34  0  0  0  0  0  0  0  0999 V2000
   -2.0552    2.5405    3.2486 H   0  0  0  1  0  0  0  0  0  0  0  0
   -0.8231    0.9311    2.7273 C   0  0  0  1  0  0  0  0  0  0  0  0
   -0.0769    3.1885    3.1468 N   0  0  0  1  0  0  0  0  0  0  0  0
   -1.1752    2.3660    2.6655 C   0  0  0  1  0  0  0  0  0  0  0  0
   -1.5154    0.0706    2.1259 O   0  0  0  1  0  0  0  0  0  0  0  0
    0.2293    0.5848    3.4260 N   0  0  0  1  0  0  0  0  0  0  0  0
    0.8391    3.0017    2.8531 H   0  0  0  1  0  0  0  0  0  0  0  0
   -0.3141    4.1985    3.9887 C   0  0  0  1  0  0  0  0  0  0  0  0
    0.5645   -0.8067    3.6889 C   0  0  0  1  0  0  0  0  0  0  0  0
    0.8679    5.1010    4.2844 C   0  0  0  1  0  0  0  0  0  0  0  0
   -1.4145    4.3992    4.5010 O   0  0  0  1  0  0  0  0  0  0  0  0
    0.8112    1.2873    3.7842 H   0  0  0  1  0  0  0  0  0  0  0  0
    0.0825   -1.1263    4.5891 H   0  0  0  1  0  0  0  0  0  0  0  0
    1.6245   -0.9034    3.7984 H   0  0  0  1  0  0  0  0  0  0  0  0
    0.2330   -1.4136    2.8723 H   0  0  0  1  0  0  0  0  0  0  0  0
    1.4887    5.1725    3.4159 H   0  0  0  1  0  0  0  0  0  0  0  0
    1.4345    4.6923    5.0948 H   0  0  0  1  0  0  0  0  0  0  0  0
    0.5146    6.0751    4.5511 H   0  0  0  1  0  0  0  0  0  0  0  0
   -1.4699    2.6879    1.2035 C   0  0  0  1  0  0  0  0  0  0  0  0
   -1.9215    4.1159    1.0519 C   0  0  0  1  0  0  0  0  0  0  0  0
   -1.0275    5.1687    0.9340 C   0  0  0  1  0  0  0  0  0  0  0  0
   -1.4967    6.4621    0.8025 C   0  0  0  1  0  0  0  0  0  0  0  0
   -2.8611    6.7059    0.7831 C   0  0  0  1  0  0  0  0  0  0  0  0
   -3.7523    5.6561    0.9007 C   0  0  0  1  0  0  0  0  0  0  0  0
   -3.2819    4.3589    1.0326 C   0  0  0  1  0  0  0  0  0  0  0  0
   -3.3688    7.9555    0.6511 O   0  0  0  1  0  0  0  0  0  0  0  0
   -0.6029    7.4750    0.6941 O   0  0  0  1  0  0  0  0  0  0  0  0
   -2.2414    2.0365    0.8494 H   0  0  0  1  0  0  0  0  0  0  0  0
   -0.5822    2.5375    0.6253 H   0  0  0  1  0  0  0  0  0  0  0  0
   -0.0038    4.9854    0.9445 H   0  0  0  1  0  0  0  0  0  0  0  0
   -4.7760    5.8394    0.8902 H   0  0  0  1  0  0  0  0  0  0  0  0
   -3.9526    3.5685    1.1171 H   0  0  0  1  0  0  0  0  0  0  0  0
   -3.5182    8.3343    1.5205 H   0  0  0  1  0  0  0  0  0  0  0  0
   -0.4460    7.6660   -0.2335 H   0  0  0  1  0  0  0  0  0  0  0  0
  1  4  1  0  0  0  0
  2  4  1  0  0  0  0
  2  5  2  0  0  0  0
  2  6  1  0  0  0  0
  3  4  1  0  0  0  0
  3  7  1  0  0  0  0
  3  8  1  0  0  0  0
  4 19  1  0  0  0  0
  6  9  1  0  0  0  0
  6 12  1  0  0  0  0
  8 10  1  0  0  0  0
  8 11  2  0  0  0  0
  9 13  1  0  0  0  0
  9 14  1  0  0  0  0
  9 15  1  0  0  0  0
 10 16  1  0  0  0  0
 10 17  1  0  0  0  0
 10 18  1  0  0  0  0
 19 20  1  0  0  0  0
 19 28  1  0  0  0  0
 19 29  1  0  0  0  0
 20 21  4  0  0  0  0
 20 25  4  0  0  0  0
 21 22  4  0  0  0  0
 21 30  1  0  0  0  0
 22 23  4  0  0  0  0
 22 27  1  0  0  0  0
 23 24  4  0  0  0  0
 23 26  1  0  0  0  0
 24 25  4  0  0  0  0
 24 31  1  0  0  0  0
 25 32  1  0  0  0  0
 26 33  1  0  0  0  0
 27 34  1  0  0  0  0
M  END
> <BCLConfClusterSize>
1

> <ConfClashScore>
0 

> <ConfOneFourInteractionScore>
-0.938423 

> <ConfScore>
-0.0209375 

> <ConfScorePBest>
0.00461551 

> <ConfTolerance>
0.416227 

> <RosettaParamsInstructions>
M  ROOT 3
M  POLY_N_BB 3
M  POLY_CA_BB 4
M  POLY_C_BB 2
M  POLY_O_BB 5
M  POLY_IGNORE 9 10 11 12 13 14 15 16 17 18 
M  POLY_UPPER 6
M  POLY_LOWER 8
M  POLY_CHG 0
M  POLY_PROPERTIES ALPHA_AA L_AA PROTEIN AROMATIC POLYMER 
M  END

$$$$



 34 34  0  0  0  0  0  0  0  0999 V2000
   -0.4928    2.7890    2.9104 H   0  0  0  1  0  0  0  0  0  0  0  0
   -2.4383    1.9966    3.0883 C   0  0  0  1  0  0  0  0  0  0  0  0
   -0.4178    0.8476    2.2116 N   0  0  0  1  0  0  0  0  0  0  0  0
   -1.1150    2.1166    2.3577 C   0  0  0  1  0  0  0  0  0  0  0  0
   -3.1704    1.0215    2.9268 O   0  0  0  1  0  0  0  0  0  0  0  0
   -2.7456    3.0131    3.9084 N   0  0  0  1  0  0  0  0  0  0  0  0
   -0.1569    0.5518    1.3145 H   0  0  0  1  0  0  0  0  0  0  0  0
   -0.1196    0.0681    3.2631 C   0  0  0  1  0  0  0  0  0  0  0  0
   -3.9252    2.9951    4.7605 C   0  0  0  1  0  0  0  0  0  0  0  0
    0.6750   -1.1848    2.9499 C   0  0  0  1  0  0  0  0  0  0  0  0
   -0.4606    0.3368    4.4142 O   0  0  0  1  0  0  0  0  0  0  0  0
   -2.1552    3.7948    3.9344 H   0  0  0  1  0  0  0  0  0  0  0  0
   -4.6711    2.3639    4.3245 H   0  0  0  1  0  0  0  0  0  0  0  0
   -4.3107    3.9886    4.8565 H   0  0  0  1  0  0  0  0  0  0  0  0
   -3.6610    2.6196    5.7270 H   0  0  0  1  0  0  0  0  0  0  0  0
    0.3522   -1.9812    3.5874 H   0  0  0  1  0  0  0  0  0  0  0  0
    1.7157   -0.9970    3.1133 H   0  0  0  1  0  0  0  0  0  0  0  0
    0.5180   -1.4603    1.9279 H   0  0  0  1  0  0  0  0  0  0  0  0
   -1.3552    2.7255    0.9824 C   0  0  0  1  0  0  0  0  0  0  0  0
   -1.9352    4.1146    0.9841 C   0  0  0  1  0  0  0  0  0  0  0  0
   -1.0961    5.2167    0.9313 C   0  0  0  1  0  0  0  0  0  0  0  0
   -1.6291    6.4919    0.9383 C   0  0  0  1  0  0  0  0  0  0  0  0
   -3.0029    6.6687    0.9927 C   0  0  0  1  0  0  0  0  0  0  0  0
   -3.8394    5.5698    1.0454 C   0  0  0  1  0  0  0  0  0  0  0  0
   -3.3050    4.2908    1.0384 C   0  0  0  1  0  0  0  0  0  0  0  0
   -3.4070    7.9636    0.9886 O   0  0  0  1  0  0  0  0  0  0  0  0
   -0.7880    7.5535    0.8912 O   0  0  0  1  0  0  0  0  0  0  0  0
   -2.0300    2.0867    0.4519 H   0  0  0  1  0  0  0  0  0  0  0  0
   -0.4174    2.7600    0.4683 H   0  0  0  1  0  0  0  0  0  0  0  0
   -0.0656    5.0841    0.8863 H   0  0  0  1  0  0  0  0  0  0  0  0
   -4.8699    5.7025    1.0903 H   0  0  0  1  0  0  0  0  0  0  0  0
   -3.9347    3.4639    1.0740 H   0  0  0  1  0  0  0  0  0  0  0  0
   -2.8081    8.4845    0.4486 H   0  0  0  1  0  0  0  0  0  0  0  0
   -0.4429    7.6496    0.0006 H   0  0  0  1  0  0  0  0  0  0  0  0
  1  4  1  0  0  0  0
  2  4  1  0  0  0  0
  2  5  2  0  0  0  0
  2  6  1  0  0  0  0
  3  4  1  0  0  0  0
  3  7  1  0  0  0  0
  3  8  1  0  0  0  0
  4 19  1  0  0  0  0
  6  9  1  0  0  0  0
  6 12  1  0  0  0  0
  8 10  1  0  0  0  0
  8 11  2  0  0  0  0
  9 13  1  0  0  0  0
  9 14  1  0  0  0  0
  9 15  1  0  0  0  0
 10 16  1  0  0  0  0
 10 17  1  0  0  0  0
 10 18  1  0  0  0  0
 19 20  1  0  0  0  0
 19 28  1  0  0  0  0
 19 29  1  0  0  0  0
 20 21  4  0  0  0  0
 20 25  4  0  0  0  0
 21 22  4  0  0  0  0
 21 30  1  0  0  0  0
 22 23  4  0  0  0  0
 22 27  1  0  0  0  0
 23 24  4  0  0  0  0
 23 26  1  0  0  0  0
 24 25  4  0  0  0  0
 24 31  1  0  0  0  0
 25 32  1  0  0  0  0
 26 33  1  0  0  0  0
 27 34  1  0  0  0  0
M  END
> <BCLConfClusterSize>
1

> <ConfClashScore>
0 

> <ConfOneFourInteractionScore>
-0.985807 

> <ConfScore>
-0.0142167 

> <ConfScorePBest>
0.00458703 

> <ConfTolerance>
0.270025 

> <RosettaParamsInstructions>
M  ROOT 3
M  POLY_N_BB 3
M  POLY_CA_BB 4
M  POLY_C_BB 2
M  POLY_O_BB 5
M  POLY_IGNORE 9 10 11 12 13 14 15 16 17 18 
M  POLY_UPPER 6
M  POLY_LOWER 8
M  POLY_CHG 0
M  POLY_PROPERTIES ALPHA_AA L_AA PROTEIN AROMATIC POLYMER 
M  END

$$$$



 34 34  0  0  0  0  0  0  0  0999 V2000
   -2.4386    2.1322   -0.7527 H   0  0  0  1  0  0  0  0  0  0  0  0
   -0.3855    2.5082   -1.1460 C   0  0  0  1  0  0  0  0  0  0  0  0
   -1.3290    0.5050   -0.0953 N   0  0  0  1  0  0  0  0  0  0  0  0
   -1.4993    1.9386   -0.2783 C   0  0  0  1  0  0  0  0  0  0  0  0
    0.7451    2.0244   -1.1321 O   0  0  0  1  0  0  0  0  0  0  0  0
   -0.7202    3.5507   -1.9079 N   0  0  0  1  0  0  0  0  0  0  0  0
   -1.0466    0.1703    0.7814 H   0  0  0  1  0  0  0  0  0  0  0  0
   -1.5443   -0.3709   -1.0810 C   0  0  0  1  0  0  0  0  0  0  0  0
    0.2181    4.3601   -2.6710 C   0  0  0  1  0  0  0  0  0  0  0  0
   -1.1419   -1.8033   -0.7889 C   0  0  0  1  0  0  0  0  0  0  0  0
   -2.0365   -0.0539   -2.1631 O   0  0  0  1  0  0  0  0  0  0  0  0
   -1.6693    3.7895   -1.9575 H   0  0  0  1  0  0  0  0  0  0  0  0
    1.0302    3.7477   -3.0033 H   0  0  0  1  0  0  0  0  0  0  0  0
    0.5953    5.1473   -2.0521 H   0  0  0  1  0  0  0  0  0  0  0  0
   -0.2813    4.7806   -3.5188 H   0  0  0  1  0  0  0  0  0  0  0  0
   -0.8143   -2.2736   -1.6925 H   0  0  0  1  0  0  0  0  0  0  0  0
   -1.9817   -2.3360   -0.3941 H   0  0  0  1  0  0  0  0  0  0  0  0
   -0.3458   -1.8112   -0.0741 H   0  0  0  1  0  0  0  0  0  0  0  0
   -1.4823    2.6424    1.0723 C   0  0  0  1  0  0  0  0  0  0  0  0
   -1.9424    4.0723    0.9974 C   0  0  0  1  0  0  0  0  0  0  0  0
   -1.0253    5.0846    0.7611 C   0  0  0  1  0  0  0  0  0  0  0  0
   -1.4480    6.3989    0.6977 C   0  0  0  1  0  0  0  0  0  0  0  0
   -2.7897    6.7045    0.8650 C   0  0  0  1  0  0  0  0  0  0  0  0
   -3.7039    5.6951    1.1007 C   0  0  0  1  0  0  0  0  0  0  0  0
   -3.2802    4.3768    1.1643 C   0  0  0  1  0  0  0  0  0  0  0  0
   -3.1314    8.0135    0.7847 O   0  0  0  1  0  0  0  0  0  0  0  0
   -0.5317    7.3713    0.4707 O   0  0  0  1  0  0  0  0  0  0  0  0
   -0.4822    2.6259    1.4524 H   0  0  0  1  0  0  0  0  0  0  0  0
   -2.1274    2.1117    1.7410 H   0  0  0  1  0  0  0  0  0  0  0  0
   -0.0192    4.8550    0.6315 H   0  0  0  1  0  0  0  0  0  0  0  0
   -4.7100    5.9247    1.2302 H   0  0  0  1  0  0  0  0  0  0  0  0
   -3.9688    3.6170    1.3376 H   0  0  0  1  0  0  0  0  0  0  0  0
   -3.7796    8.1332    0.0868 H   0  0  0  1  0  0  0  0  0  0  0  0
   -0.6667    8.0903    1.0923 H   0  0  0  1  0  0  0  0  0  0  0  0
  1  4  1  0  0  0  0
  2  4  1  0  0  0  0
  2  5  2  0  0  0  0
  2  6  1  0  0  0  0
  3  4  1  0  0  0  0
  3  7  1  0  0  0  0
  3  8  1  0  0  0  0
  4 19  1  0  0  0  0
  6  9  1  0  0  0  0
  6 12  1  0  0  0  0
  8 10  1  0  0  0  0
  8 11  2  0  0  0  0
  9 13  1  0  0  0  0
  9 14  1  0  0  0  0
  9 15  1  0  0  0  0
 10 16  1  0  0  0  0
 10 17  1  0  0  0  0
 10 18  1  0  0  0  0
 19 20  1  0  0  0  0
 19 28  1  0  0  0  0
 19 29  1  0  0  0  0
 20 21  4  0  0  0  0
 20 25  4  0  0  0  0
 21 22  4  0  0  0  0
 21 30  1  0  0  0  0
 22 23  4  0  0  0  0
 22 27  1  0  0  0  0
 23 24  4  0  0  0  0
 23 26  1  0  0  0  0
 24 25  4  0  0  0  0
 24 31  1  0  0  0  0
 25 32  1  0  0  0  0
 26 33  1  0  0  0  0
 27 34  1  0  0  0  0
M  END
> <BCLConfClusterSize>
1

> <ConfClashScore>
0 

> <ConfOneFourInteractionScore>
-0.978127 

> <ConfScore>
-0.0125136 

> <ConfScorePBest>
0.00455855 

> <ConfTolerance>
0.320196 

> <RosettaParamsInstructions>
M  ROOT 3
M  POLY_N_BB 3
M  POLY_CA_BB 4
M  POLY_C_BB 2
M  POLY_O_BB 5
M  POLY_IGNORE 9 10 11 12 13 14 15 16 17 18 
M  POLY_UPPER 6
M  POLY_LOWER 8
M  POLY_CHG 0
M  POLY_PROPERTIES ALPHA_AA L_AA PROTEIN AROMATIC POLYMER 
M  END

$$$$



 34 34  0  0  0  0  0  0  0  0999 V2000
   -3.2784    1.8812    1.9366 H   0  0  0  1  0  0  0  0  0  0  0  0
   -3.2558    1.6219   -0.1826 C   0  0  0  1  0  0  0  0  0  0  0  0
   -1.9794    0.3232    1.4641 N   0  0  0  1  0  0  0  0  0  0  0  0
   -2.5660    1.6232    1.1810 C   0  0  0  1  0  0  0  0  0  0  0  0
   -4.1964    2.3769   -0.4228 O   0  0  0  1  0  0  0  0  0  0  0  0
   -2.7709    0.7564   -1.0775 N   0  0  0  1  0  0  0  0  0  0  0  0
   -1.0051    0.2226    1.4947 H   0  0  0  1  0  0  0  0  0  0  0  0
   -2.7633   -0.7308    1.6820 C   0  0  0  1  0  0  0  0  0  0  0  0
   -3.3069    0.6506   -2.4263 C   0  0  0  1  0  0  0  0  0  0  0  0
   -2.0603   -2.0242    2.1028 C   0  0  0  1  0  0  0  0  0  0  0  0
   -3.9866   -0.7528    1.5752 O   0  0  0  1  0  0  0  0  0  0  0  0
   -2.0284    0.1724   -0.8165 H   0  0  0  1  0  0  0  0  0  0  0  0
   -4.3140    0.2916   -2.3833 H   0  0  0  1  0  0  0  0  0  0  0  0
   -2.7095   -0.0311   -2.9949 H   0  0  0  1  0  0  0  0  0  0  0  0
   -3.2915    1.6136   -2.8925 H   0  0  0  1  0  0  0  0  0  0  0  0
   -1.7941   -1.9657    3.1375 H   0  0  0  1  0  0  0  0  0  0  0  0
   -1.1766   -2.1573    1.5144 H   0  0  0  1  0  0  0  0  0  0  0  0
   -2.7190   -2.8536    1.9506 H   0  0  0  1  0  0  0  0  0  0  0  0
   -1.4409    2.6626    1.1732 C   0  0  0  1  0  0  0  0  0  0  0  0
   -1.9444    4.0757    1.0479 C   0  0  0  1  0  0  0  0  0  0  0  0
   -1.0060    5.0885    0.9249 C   0  0  0  1  0  0  0  0  0  0  0  0
   -1.4186    6.4028    0.8123 C   0  0  0  1  0  0  0  0  0  0  0  0
   -2.7708    6.7077    0.8170 C   0  0  0  1  0  0  0  0  0  0  0  0
   -3.7063    5.6978    0.9397 C   0  0  0  1  0  0  0  0  0  0  0  0
   -3.2927    4.3796    1.0526 C   0  0  0  1  0  0  0  0  0  0  0  0
   -3.1009    8.0167    0.6975 O   0  0  0  1  0  0  0  0  0  0  0  0
   -0.5754    7.4570    0.6932 O   0  0  0  1  0  0  0  0  0  0  0  0
   -0.7933    2.4572    0.3466 H   0  0  0  1  0  0  0  0  0  0  0  0
   -0.8915    2.5766    2.0873 H   0  0  0  1  0  0  0  0  0  0  0  0
    0.0085    4.8594    0.9173 H   0  0  0  1  0  0  0  0  0  0  0  0
   -4.7207    5.9269    0.9472 H   0  0  0  1  0  0  0  0  0  0  0  0
   -3.9969    3.6193    1.1408 H   0  0  0  1  0  0  0  0  0  0  0  0
   -3.8223    8.2212    1.2969 H   0  0  0  1  0  0  0  0  0  0  0  0
   -0.6916    7.8647   -0.1681 H   0  0  0  1  0  0  0  0  0  0  0  0
  1  4  1  0  0  0  0
  2  4  1  0  0  0  0
  2  5  2  0  0  0  0
  2  6  1  0  0  0  0
  3  4  1  0  0  0  0
  3  7  1  0  0  0  0
  3  8  1  0  0  0  0
  4 19  1  0  0  0  0
  6  9  1  0  0  0  0
  6 12  1  0  0  0  0
  8 10  1  0  0  0  0
  8 11  2  0  0  0  0
  9 13  1  0  0  0  0
  9 14  1  0  0  0  0
  9 15  1  0  0  0  0
 10 16  1  0  0  0  0
 10 17  1  0  0  0  0
 10 18  1  0  0  0  0
 19 20  1  0  0  0  0
 19 28  1  0  0  0  0
 19 29  1  0  0  0  0
 20 21  4  0  0  0  0
 20 25  4  0  0  0  0
 21 22  4  0  0  0  0
 21 30  1  0  0  0  0
 22 23  4  0  0  0  0
 22 27  1  0  0  0  0
 23 24  4  0  0  0  0
 23 26  1  0  0  0  0
 24 25  4  0  0  0  0
 24 31  1  0  0  0  0
 25 32  1  0  0  0  0
 26 33  1  0  0  0  0
 27 34  1  0  0  0  0
M  END
> <BCLConfClusterSize>
1

> <ConfClashScore>
0 

> <ConfOneFourInteractionScore>
-0.952877 

> <ConfScore>
-0.0113499 

> <ConfScorePBest>
0.00453007 

> <ConfTolerance>
0.817905 

> <RosettaParamsInstructions>
M  ROOT 3
M  POLY_N_BB 3
M  POLY_CA_BB 4
M  POLY_C_BB 2
M  POLY_O_BB 5
M  POLY_IGNORE 9 10 11 12 13 14 15 16 17 18 
M  POLY_UPPER 6
M  POLY_LOWER 8
M  POLY_CHG 0
M  POLY_PROPERTIES ALPHA_AA L_AA PROTEIN AROMATIC POLYMER 
M  END

$$$$



 34 34  0  0  0  0  0  0  0  0999 V2000
   -0.5454    3.0644    2.9678 H   0  0  0  1  0  0  0  0  0  0  0  0
   -2.3883    2.1152    3.3651 C   0  0  0  1  0  0  0  0  0  0  0  0
   -0.3421    1.0406    2.5851 N   0  0  0  1  0  0  0  0  0  0  0  0
   -1.1240    2.2711    2.5426 C   0  0  0  1  0  0  0  0  0  0  0  0
   -2.9636    1.0312    3.4523 O   0  0  0  1  0  0  0  0  0  0  0  0
   -2.8252    3.2260    3.9793 N   0  0  0  1  0  0  0  0  0  0  0  0
   -0.2981    0.4802    1.7824 H   0  0  0  1  0  0  0  0  0  0  0  0
    0.3372    0.6386    3.7151 C   0  0  0  1  0  0  0  0  0  0  0  0
   -4.0535    3.2511    4.7594 C   0  0  0  1  0  0  0  0  0  0  0  0
    1.0154   -0.6978    3.6323 C   0  0  0  1  0  0  0  0  0  0  0  0
    0.3611    1.3534    4.6991 O   0  0  0  1  0  0  0  0  0  0  0  0
   -2.2987    4.0487    3.8996 H   0  0  0  1  0  0  0  0  0  0  0  0
   -4.8094    2.6876    4.2535 H   0  0  0  1  0  0  0  0  0  0  0  0
   -4.3812    4.2630    4.8758 H   0  0  0  1  0  0  0  0  0  0  0  0
   -3.8729    2.8211    5.7224 H   0  0  0  1  0  0  0  0  0  0  0  0
    0.9807   -1.1758    4.5889 H   0  0  0  1  0  0  0  0  0  0  0  0
    2.0353   -0.5623    3.3384 H   0  0  0  1  0  0  0  0  0  0  0  0
    0.5138   -1.3080    2.9105 H   0  0  0  1  0  0  0  0  0  0  0  0
   -1.4629    2.6507    1.1070 C   0  0  0  1  0  0  0  0  0  0  0  0
   -1.9473    4.0694    0.9709 C   0  0  0  1  0  0  0  0  0  0  0  0
   -1.0293    5.0877    0.7655 C   0  0  0  1  0  0  0  0  0  0  0  0
   -1.4525    6.4030    0.7323 C   0  0  0  1  0  0  0  0  0  0  0  0
   -2.7953    6.7037    0.8990 C   0  0  0  1  0  0  0  0  0  0  0  0
   -3.7104    5.6884    1.1038 C   0  0  0  1  0  0  0  0  0  0  0  0
   -3.2863    4.3691    1.1371 C   0  0  0  1  0  0  0  0  0  0  0  0
   -3.3019    7.9605    0.8765 O   0  0  0  1  0  0  0  0  0  0  0  0
   -0.4989    7.3451    0.5327 O   0  0  0  1  0  0  0  0  0  0  0  0
   -2.2296    1.9936    0.7530 H   0  0  0  1  0  0  0  0  0  0  0  0
   -0.5851    2.5314    0.5069 H   0  0  0  1  0  0  0  0  0  0  0  0
   -0.0224    4.8618    0.6364 H   0  0  0  1  0  0  0  0  0  0  0  0
   -4.7173    5.9142    1.2329 H   0  0  0  1  0  0  0  0  0  0  0  0
   -3.9755    3.6049    1.2872 H   0  0  0  1  0  0  0  0  0  0  0  0
   -3.5596    8.1861   -0.0204 H   0  0  0  1  0  0  0  0  0  0  0  0
   -0.7196    8.1351    1.0315 H   0  0  0  1  0  0  0  0  0  0  0  0
  1  4  1  0  0  0  0
  2  4  1  0  0  0  0
  2  5  2  0  0  0  0
  2  6  1  0  0  0  0
  3  4  1  0  0  0  0
  3  7  1  0  0  0  0
  3  8  1  0  0  0  0
  4 19  1  0  0  0  0
  6  9  1  0  0  0  0
  6 12  1  0  0  0  0
  8 10  1  0  0  0  0
  8 11  2  0  0  0  0
  9 13  1  0  0  0  0
  9 14  1  0  0  0  0
  9 15  1  0  0  0  0
 10 16  1  0  0  0  0
 10 17  1  0  0  0  0
 10 18  1  0  0  0  0
 19 20  1  0  0  0  0
 19 28  1  0  0  0  0
 19 29  1  0  0  0  0
 20 21  4  0  0  0  0
 20 25  4  0  0  0  0
 21 22  4  0  0  0  0
 21 30  1  0  0  0  0
 22 23  4  0  0  0  0
 22 27  1  0  0  0  0
 23 24  4  0  0  0  0
 23 26  1  0  0  0  0
 24 25  4  0  0  0  0
 24 31  1  0  0  0  0
 25 32  1  0  0  0  0
 26 33  1  0  0  0  0
 27 34  1  0  0  0  0
M  END
> <BCLConfClusterSize>
1

> <ConfClashScore>
0 

> <ConfOneFourInteractionScore>
-0.978127 

> <ConfScore>
-0.0111202 

> <ConfScorePBest>
0.00450159 

> <ConfTolerance>
0.367612 

> <RosettaParamsInstructions>
M  ROOT 3
M  POLY_N_BB 3
M  POLY_CA_BB 4
M  POLY_C_BB 2
M  POLY_O_BB 5
M  POLY_IGNORE 9 10 11 12 13 14 15 16 17 18 
M  POLY_UPPER 6
M  POLY_LOWER 8
M  POLY_CHG 0
M  POLY_PROPERTIES ALPHA_AA L_AA PROTEIN AROMATIC POLYMER 
M  END

$$$$



 34 34  0  0  0  0  0  0  0  0999 V2000
   -1.0167    2.3000   -0.9661 H   0  0  0  1  0  0  0  0  0  0  0  0
   -1.0715    0.3846   -0.0900 C   0  0  0  1  0  0  0  0  0  0  0  0
   -3.0006    1.8241   -0.6219 N   0  0  0  1  0  0  0  0  0  0  0  0
   -1.5865    1.8202   -0.1980 C   0  0  0  1  0  0  0  0  0  0  0  0
   -1.8138   -0.5030    0.3280 O   0  0  0  1  0  0  0  0  0  0  0  0
    0.1624    0.1517   -0.5463 N   0  0  0  1  0  0  0  0  0  0  0  0
   -3.5626    1.0522   -0.4010 H   0  0  0  1  0  0  0  0  0  0  0  0
   -3.5408    2.8432   -1.2960 C   0  0  0  1  0  0  0  0  0  0  0  0
    0.8357   -1.1235   -0.3506 C   0  0  0  1  0  0  0  0  0  0  0  0
   -4.9962    2.6660   -1.7093 C   0  0  0  1  0  0  0  0  0  0  0  0
   -2.9243    3.8573   -1.5717 O   0  0  0  1  0  0  0  0  0  0  0  0
    0.6303    0.8643   -1.0296 H   0  0  0  1  0  0  0  0  0  0  0  0
    0.3689   -1.6544    0.4527 H   0  0  0  1  0  0  0  0  0  0  0  0
    1.8646   -0.9506   -0.1131 H   0  0  0  1  0  0  0  0  0  0  0  0
    0.7687   -1.7033   -1.2474 H   0  0  0  1  0  0  0  0  0  0  0  0
   -5.5416    2.2100   -0.9095 H   0  0  0  1  0  0  0  0  0  0  0  0
   -5.0469    2.0415   -2.5767 H   0  0  0  1  0  0  0  0  0  0  0  0
   -5.4225    3.6218   -1.9319 H   0  0  0  1  0  0  0  0  0  0  0  0
   -1.4252    2.6519    1.0639 C   0  0  0  1  0  0  0  0  0  0  0  0
   -1.9372    4.0672    1.0351 C   0  0  0  1  0  0  0  0  0  0  0  0
   -1.0670    5.1222    0.8082 C   0  0  0  1  0  0  0  0  0  0  0  0
   -1.5563    6.4103    0.7002 C   0  0  0  1  0  0  0  0  0  0  0  0
   -2.9175    6.6466    0.8135 C   0  0  0  1  0  0  0  0  0  0  0  0
   -3.7849    5.5947    1.0397 C   0  0  0  1  0  0  0  0  0  0  0  0
   -3.2944    4.3027    1.1480 C   0  0  0  1  0  0  0  0  0  0  0  0
   -3.3250    7.9334    0.6916 O   0  0  0  1  0  0  0  0  0  0  0  0
   -0.7828    7.5020    0.4844 O   0  0  0  1  0  0  0  0  0  0  0  0
   -0.3798    2.6941    1.2881 H   0  0  0  1  0  0  0  0  0  0  0  0
   -1.9390    2.1416    1.8516 H   0  0  0  1  0  0  0  0  0  0  0  0
   -0.0462    4.9445    0.7192 H   0  0  0  1  0  0  0  0  0  0  0  0
   -4.8057    5.7724    1.1286 H   0  0  0  1  0  0  0  0  0  0  0  0
   -3.9476    3.5107    1.3142 H   0  0  0  1  0  0  0  0  0  0  0  0
   -2.7146    8.4105    0.1247 H   0  0  0  1  0  0  0  0  0  0  0  0
   -0.8748    8.1107    1.2210 H   0  0  0  1  0  0  0  0  0  0  0  0
  1  4  1  0  0  0  0
  2  4  1  0  0  0  0
  2  5  2  0  0  0  0
  2  6  1  0  0  0  0
  3  4  1  0  0  0  0
  3  7  1  0  0  0  0
  3  8  1  0  0  0  0
  4 19  1  0  0  0  0
  6  9  1  0  0  0  0
  6 12  1  0  0  0  0
  8 10  1  0  0  0  0
  8 11  2  0  0  0  0
  9 13  1  0  0  0  0
  9 14  1  0  0  0  0
  9 15  1  0  0  0  0
 10 16  1  0  0  0  0
 10 17  1  0  0  0  0
 10 18  1  0  0  0  0
 19 20  1  0  0  0  0
 19 28  1  0  0  0  0
 19 29  1  0  0  0  0
 20 21  4  0  0  0  0
 20 25  4  0  0  0  0
 21 22  4  0  0  0  0
 21 30  1  0  0  0  0
 22 23  4  0  0  0  0
 22 27  1  0  0  0  0
 23 24  4  0  0  0  0
 23 26  1  0  0  0  0
 24 25  4  0  0  0  0
 24 31  1  0  0  0  0
 25 32  1  0  0  0  0
 26 33  1  0  0  0  0
 27 34  1  0  0  0  0
M  END
> <BCLConfClusterSize>
1

> <ConfClashScore>
0 

> <ConfOneFourInteractionScore>
-0.990503 

> <ConfScore>
-0.0107292 

> <ConfScorePBest>
0.00447311 

> <ConfTolerance>
0.456081 

> <RosettaParamsInstructions>
M  ROOT 3
M  POLY_N_BB 3
M  POLY_CA_BB 4
M  POLY_C_BB 2
M  POLY_O_BB 5
M  POLY_IGNORE 9 10 11 12 13 14 15 16 17 18 
M  POLY_UPPER 6
M  POLY_LOWER 8
M  POLY_CHG 0
M  POLY_PROPERTIES ALPHA_AA L_AA PROTEIN AROMATIC POLYMER 
M  END

$$$$



 34 34  0  0  0  0  0  0  0  0999 V2000
   -0.5532    3.1251    3.2066 H   0  0  0  1  0  0  0  0  0  0  0  0
   -2.4619    2.2707    3.5132 C   0  0  0  1  0  0  0  0  0  0  0  0
   -0.4427    1.0998    2.8506 N   0  0  0  1  0  0  0  0  0  0  0  0
   -1.1462    2.3674    2.7385 C   0  0  0  1  0  0  0  0  0  0  0  0
   -3.3763    1.6148    3.0159 O   0  0  0  1  0  0  0  0  0  0  0  0
   -2.5502    2.8997    4.6832 N   0  0  0  1  0  0  0  0  0  0  0  0
   -0.2951    0.5675    2.0411 H   0  0  0  1  0  0  0  0  0  0  0  0
    0.0094    0.6354    4.0189 C   0  0  0  1  0  0  0  0  0  0  0  0
   -3.7930    2.9678    5.4374 C   0  0  0  1  0  0  0  0  0  0  0  0
    0.5905   -0.7649    3.9907 C   0  0  0  1  0  0  0  0  0  0  0  0
   -0.0341    1.2821    5.0525 O   0  0  0  1  0  0  0  0  0  0  0  0
   -1.7505    3.3319    5.0493 H   0  0  0  1  0  0  0  0  0  0  0  0
   -4.1315    1.9770    5.6581 H   0  0  0  1  0  0  0  0  0  0  0  0
   -4.5343    3.4769    4.8576 H   0  0  0  1  0  0  0  0  0  0  0  0
   -3.6268    3.4994    6.3509 H   0  0  0  1  0  0  0  0  0  0  0  0
    1.5639   -0.7567    4.4349 H   0  0  0  1  0  0  0  0  0  0  0  0
    0.6639   -1.1000    2.9772 H   0  0  0  1  0  0  0  0  0  0  0  0
   -0.0464   -1.4262    4.5403 H   0  0  0  1  0  0  0  0  0  0  0  0
   -1.3324    2.7662    1.2804 C   0  0  0  1  0  0  0  0  0  0  0  0
   -1.9341    4.1276    1.0556 C   0  0  0  1  0  0  0  0  0  0  0  0
   -1.0735    5.1764    0.7708 C   0  0  0  1  0  0  0  0  0  0  0  0
   -1.5773    6.4463    0.5618 C   0  0  0  1  0  0  0  0  0  0  0  0
   -2.9435    6.6703    0.6316 C   0  0  0  1  0  0  0  0  0  0  0  0
   -3.8014    5.6246    0.9156 C   0  0  0  1  0  0  0  0  0  0  0  0
   -3.2963    4.3508    1.1253 C   0  0  0  1  0  0  0  0  0  0  0  0
   -3.3653    7.9391    0.4104 O   0  0  0  1  0  0  0  0  0  0  0  0
   -0.7759    7.5038    0.2857 O   0  0  0  1  0  0  0  0  0  0  0  0
   -1.9718    2.0426    0.8194 H   0  0  0  1  0  0  0  0  0  0  0  0
   -0.3726    2.7474    0.8078 H   0  0  0  1  0  0  0  0  0  0  0  0
   -0.0488    5.0076    0.7144 H   0  0  0  1  0  0  0  0  0  0  0  0
   -4.8261    5.7933    0.9720 H   0  0  0  1  0  0  0  0  0  0  0  0
   -3.9423    3.5632    1.3350 H   0  0  0  1  0  0  0  0  0  0  0  0
   -3.4345    8.4043    1.2473 H   0  0  0  1  0  0  0  0  0  0  0  0
   -0.1278    7.6063    0.9865 H   0  0  0  1  0  0  0  0  0  0  0  0
  1  4  1  0  0  0  0
  2  4  1  0  0  0  0
  2  5  2  0  0  0  0
  2  6  1  0  0  0  0
  3  4  1  0  0  0  0
  3  7  1  0  0  0  0
  3  8  1  0  0  0  0
  4 19  1  0  0  0  0
  6  9  1  0  0  0  0
  6 12  1  0  0  0  0
  8 10  1  0  0  0  0
  8 11  2  0  0  0  0
  9 13  1  0  0  0  0
  9 14  1  0  0  0  0
  9 15  1  0  0  0  0
 10 16  1  0  0  0  0
 10 17  1  0  0  0  0
 10 18  1  0  0  0  0
 19 20  1  0  0  0  0
 19 28  1  0  0  0  0
 19 29  1  0  0  0  0
 20 21  4  0  0  0  0
 20 25  4  0  0  0  0
 21 22  4  0  0  0  0
 21 30  1  0  0  0  0
 22 23  4  0  0  0  0
 22 27  1  0  0  0  0
 23 24  4  0  0  0  0
 23 26  1  0  0  0  0
 24 25  4  0  0  0  0
 24 31  1  0  0  0  0
 25 32  1  0  0  0  0
 26 33  1  0  0  0  0
 27 34  1  0  0  0  0
M  END
> <BCLConfClusterSize>
1

> <ConfClashScore>
0 

> <ConfOneFourInteractionScore>
-0.979134 

> <ConfScore>
-0.00944233 

> <ConfScorePBest>
0.00444463 

> <ConfTolerance>
0.458431 

> <RosettaParamsInstructions>
M  ROOT 3
M  POLY_N_BB 3
M  POLY_CA_BB 4
M  POLY_C_BB 2
M  POLY_O_BB 5
M  POLY_IGNORE 9 10 11 12 13 14 15 16 17 18 
M  POLY_UPPER 6
M  POLY_LOWER 8
M  POLY_CHG 0
M  POLY_PROPERTIES ALPHA_AA L_AA PROTEIN AROMATIC POLYMER 
M  END

$$$$



 34 34  0  0  0  0  0  0  0  0999 V2000
   -1.1193    1.0643   -0.4008 H   0  0  0  1  0  0  0  0  0  0  0  0
   -3.1874    1.5595   -0.4080 C   0  0  0  1  0  0  0  0  0  0  0  0
   -1.3827    2.7890   -1.5270 N   0  0  0  1  0  0  0  0  0  0  0  0
   -1.7137    1.9538   -0.3821 C   0  0  0  1  0  0  0  0  0  0  0  0
   -3.5516    0.4329   -0.0816 O   0  0  0  1  0  0  0  0  0  0  0  0
   -4.0425    2.5192   -0.8073 N   0  0  0  1  0  0  0  0  0  0  0  0
   -0.9688    3.6634   -1.3707 H   0  0  0  1  0  0  0  0  0  0  0  0
   -1.6234    2.4049   -2.7838 C   0  0  0  1  0  0  0  0  0  0  0  0
   -5.4862    2.3636   -0.7100 C   0  0  0  1  0  0  0  0  0  0  0  0
   -1.1895    3.3305   -3.9150 C   0  0  0  1  0  0  0  0  0  0  0  0
   -2.1743    1.3491   -3.0841 O   0  0  0  1  0  0  0  0  0  0  0  0
   -3.6803    3.3516   -1.1765 H   0  0  0  1  0  0  0  0  0  0  0  0
   -5.7299    1.8526    0.1979 H   0  0  0  1  0  0  0  0  0  0  0  0
   -5.8406    1.7958   -1.5448 H   0  0  0  1  0  0  0  0  0  0  0  0
   -5.9495    3.3281   -0.7115 H   0  0  0  1  0  0  0  0  0  0  0  0
   -0.6722    2.7644   -4.6612 H   0  0  0  1  0  0  0  0  0  0  0  0
   -0.5395    4.0869   -3.5272 H   0  0  0  1  0  0  0  0  0  0  0  0
   -2.0522    3.7899   -4.3505 H   0  0  0  1  0  0  0  0  0  0  0  0
   -1.4263    2.7029    0.9089 C   0  0  0  1  0  0  0  0  0  0  0  0
   -1.9338    4.1192    0.9598 C   0  0  0  1  0  0  0  0  0  0  0  0
   -1.0414    5.1783    0.9003 C   0  0  0  1  0  0  0  0  0  0  0  0
   -1.5077    6.4784    0.9524 C   0  0  0  1  0  0  0  0  0  0  0  0
   -2.8679    6.7233    1.0588 C   0  0  0  1  0  0  0  0  0  0  0  0
   -3.7574    5.6672    1.1181 C   0  0  0  1  0  0  0  0  0  0  0  0
   -3.2900    4.3633    1.0658 C   0  0  0  1  0  0  0  0  0  0  0  0
   -3.3729    7.9800    1.1081 O   0  0  0  1  0  0  0  0  0  0  0  0
   -0.5774    7.4622    0.8945 O   0  0  0  1  0  0  0  0  0  0  0  0
   -0.3656    2.7272    1.0473 H   0  0  0  1  0  0  0  0  0  0  0  0
   -1.8791    2.1610    1.7128 H   0  0  0  1  0  0  0  0  0  0  0  0
   -0.0212    4.9947    0.8165 H   0  0  0  1  0  0  0  0  0  0  0  0
   -4.7777    5.8509    1.2019 H   0  0  0  1  0  0  0  0  0  0  0  0
   -3.9598    3.5687    1.1064 H   0  0  0  1  0  0  0  0  0  0  0  0
   -3.6068    8.2663    0.2222 H   0  0  0  1  0  0  0  0  0  0  0  0
   -0.3391    7.6245   -0.0212 H   0  0  0  1  0  0  0  0  0  0  0  0
  1  4  1  0  0  0  0
  2  4  1  0  0  0  0
  2  5  2  0  0  0  0
  2  6  1  0  0  0  0
  3  4  1  0  0  0  0
  3  7  1  0  0  0  0
  3  8  1  0  0  0  0
  4 19  1  0  0  0  0
  6  9  1  0  0  0  0
  6 12  1  0  0  0  0
  8 10  1  0  0  0  0
  8 11  2  0  0  0  0
  9 13  1  0  0  0  0
  9 14  1  0  0  0  0
  9 15  1  0  0  0  0
 10 16  1  0  0  0  0
 10 17  1  0  0  0  0
 10 18  1  0  0  0  0
 19 20  1  0  0  0  0
 19 28  1  0  0  0  0
 19 29  1  0  0  0  0
 20 21  4  0  0  0  0
 20 25  4  0  0  0  0
 21 22  4  0  0  0  0
 21 30  1  0  0  0  0
 22 23  4  0  0  0  0
 22 27  1  0  0  0  0
 23 24  4  0  0  0  0
 23 26  1  0  0  0  0
 24 25  4  0  0  0  0
 24 31  1  0  0  0  0
 25 32  1  0  0  0  0
 26 33  1  0  0  0  0
 27 34  1  0  0  0  0
M  END
> <BCLConfClusterSize>
1

> <ConfClashScore>
0 

> <ConfOneFourInteractionScore>
-0.931937 

> <ConfScore>
-0.00617614 

> <ConfScorePBest>
0.00441614 

> <ConfTolerance>
0.520487 

> <RosettaParamsInstructions>
M  ROOT 3
M  POLY_N_BB 3
M  POLY_CA_BB 4
M  POLY_C_BB 2
M  POLY_O_BB 5
M  POLY_IGNORE 9 10 11 12 13 14 15 16 17 18 
M  POLY_UPPER 6
M  POLY_LOWER 8
M  POLY_CHG 0
M  POLY_PROPERTIES ALPHA_AA L_AA PROTEIN AROMATIC POLYMER 
M  END

$$$$



 34 34  0  0  0  0  0  0  0  0999 V2000
   -1.2428    3.0878    3.2826 H   0  0  0  1  0  0  0  0  0  0  0  0
   -1.1016    1.0183    2.9469 C   0  0  0  1  0  0  0  0  0  0  0  0
    0.6594    2.7197    2.5827 N   0  0  0  1  0  0  0  0  0  0  0  0
   -0.7736    2.4484    2.5643 C   0  0  0  1  0  0  0  0  0  0  0  0
   -2.0496    0.7656    3.6857 O   0  0  0  1  0  0  0  0  0  0  0  0
   -0.3259    0.0396    2.4546 N   0  0  0  1  0  0  0  0  0  0  0  0
    1.0777    3.1071    1.7856 H   0  0  0  1  0  0  0  0  0  0  0  0
    1.4290    2.4558    3.6589 C   0  0  0  1  0  0  0  0  0  0  0  0
   -0.5253   -1.3595    2.8021 C   0  0  0  1  0  0  0  0  0  0  0  0
    2.9080    2.7792    3.5742 C   0  0  0  1  0  0  0  0  0  0  0  0
    0.9475    1.9671    4.6802 O   0  0  0  1  0  0  0  0  0  0  0  0
    0.3999    0.2754    1.8398 H   0  0  0  1  0  0  0  0  0  0  0  0
   -1.5659   -1.5401    2.9736 H   0  0  0  1  0  0  0  0  0  0  0  0
    0.0272   -1.5886    3.6893 H   0  0  0  1  0  0  0  0  0  0  0  0
   -0.1838   -1.9784    1.9989 H   0  0  0  1  0  0  0  0  0  0  0  0
    3.1314    3.1788    2.6071 H   0  0  0  1  0  0  0  0  0  0  0  0
    3.4775    1.8872    3.7315 H   0  0  0  1  0  0  0  0  0  0  0  0
    3.1587    3.5000    4.3242 H   0  0  0  1  0  0  0  0  0  0  0  0
   -1.3484    2.7977    1.2116 C   0  0  0  1  0  0  0  0  0  0  0  0
   -1.9175    4.1798    1.0328 C   0  0  0  1  0  0  0  0  0  0  0  0
   -1.0707    5.2561    0.8180 C   0  0  0  1  0  0  0  0  0  0  0  0
   -1.5935    6.5256    0.6592 C   0  0  0  1  0  0  0  0  0  0  0  0
   -2.9648    6.7219    0.7095 C   0  0  0  1  0  0  0  0  0  0  0  0
   -3.8089    5.6487    0.9237 C   0  0  0  1  0  0  0  0  0  0  0  0
   -3.2848    4.3753    1.0830 C   0  0  0  1  0  0  0  0  0  0  0  0
   -3.5245    7.9464    0.5543 O   0  0  0  1  0  0  0  0  0  0  0  0
   -0.7057    7.5296    0.4582 O   0  0  0  1  0  0  0  0  0  0  0  0
   -2.1331    2.0995    1.0073 H   0  0  0  1  0  0  0  0  0  0  0  0
   -0.5668    2.6776    0.4909 H   0  0  0  1  0  0  0  0  0  0  0  0
   -0.0421    5.1083    0.7762 H   0  0  0  1  0  0  0  0  0  0  0  0
   -4.8375    5.7965    0.9654 H   0  0  0  1  0  0  0  0  0  0  0  0
   -3.9203    3.5672    1.2402 H   0  0  0  1  0  0  0  0  0  0  0  0
   -3.6456    8.3547    1.4147 H   0  0  0  1  0  0  0  0  0  0  0  0
    0.1851    7.1719    0.4455 H   0  0  0  1  0  0  0  0  0  0  0  0
  1  4  1  0  0  0  0
  2  4  1  0  0  0  0
  2  5  2  0  0  0  0
  2  6  1  0  0  0  0
  3  4  1  0  0  0  0
  3  7  1  0  0  0  0
  3  8  1  0  0  0  0
  4 19  1  0  0  0  0
  6  9  1  0  0  0  0
  6 12  1  0  0  0  0
  8 10  1  0  0  0  0
  8 11  2  0  0  0  0
  9 13  1  0  0  0  0
  9 14  1  0  0  0  0
  9 15  1  0  0  0  0
 10 16  1  0  0  0  0
 10 17  1  0  0  0  0
 10 18  1  0  0  0  0
 19 20  1  0  0  0  0
 19 28  1  0  0  0  0
 19 29  1  0  0  0  0
 20 21  4  0  0  0  0
 20 25  4  0  0  0  0
 21 22  4  0  0  0  0
 21 30  1  0  0  0  0
 22 23  4  0  0  0  0
 22 27  1  0  0  0  0
 23 24  4  0  0  0  0
 23 26  1  0  0  0  0
 24 25  4  0  0  0  0
 24 31  1  0  0  0  0
 25 32  1  0  0  0  0
 26 33  1  0  0  0  0
 27 34  1  0  0  0  0
M  END
> <BCLConfClusterSize>
1

> <ConfClashScore>
0 

> <ConfOneFourInteractionScore>
-0.940901 

> <ConfScore>
-0.0021758 

> <ConfScorePBest>
0.00438766 

> <ConfTolerance>
0.791053 

> <RosettaParamsInstructions>
M  ROOT 3
M  POLY_N_BB 3
M  POLY_CA_BB 4
M  POLY_C_BB 2
M  POLY_O_BB 5
M  POLY_IGNORE 9 10 11 12 13 14 15 16 17 18 
M  POLY_UPPER 6
M  POLY_LOWER 8
M  POLY_CHG 0
M  POLY_PROPERTIES ALPHA_AA L_AA PROTEIN AROMATIC POLYMER 
M  END

$$$$



 34 34  0  0  0  0  0  0  0  0999 V2000
   -0.8290    2.3869   -0.8902 H   0  0  0  1  0  0  0  0  0  0  0  0
   -1.1644    0.5219    0.0445 C   0  0  0  1  0  0  0  0  0  0  0  0
   -2.8750    2.1525   -0.7374 N   0  0  0  1  0  0  0  0  0  0  0  0
   -1.5349    1.9786   -0.1974 C   0  0  0  1  0  0  0  0  0  0  0  0
   -1.6151   -0.0671    1.0131 O   0  0  0  1  0  0  0  0  0  0  0  0
   -0.4130   -0.0710   -0.8876 N   0  0  0  1  0  0  0  0  0  0  0  0
   -3.6451    1.9587   -0.1631 H   0  0  0  1  0  0  0  0  0  0  0  0
   -3.0920    2.5672   -1.9888 C   0  0  0  1  0  0  0  0  0  0  0  0
   -0.0026   -1.4635   -0.7853 C   0  0  0  1  0  0  0  0  0  0  0  0
   -4.5401    2.6255   -2.4196 C   0  0  0  1  0  0  0  0  0  0  0  0
   -2.1844    2.8853   -2.7559 O   0  0  0  1  0  0  0  0  0  0  0  0
   -0.1284    0.4498   -1.6674 H   0  0  0  1  0  0  0  0  0  0  0  0
    0.1030   -1.7299    0.2456 H   0  0  0  1  0  0  0  0  0  0  0  0
    0.9339   -1.5967   -1.2855 H   0  0  0  1  0  0  0  0  0  0  0  0
   -0.7428   -2.0877   -1.2407 H   0  0  0  1  0  0  0  0  0  0  0  0
   -5.0556    3.3630   -1.8405 H   0  0  0  1  0  0  0  0  0  0  0  0
   -4.9962    1.6697   -2.2669 H   0  0  0  1  0  0  0  0  0  0  0  0
   -4.5934    2.8852   -3.4562 H   0  0  0  1  0  0  0  0  0  0  0  0
   -1.4093    2.7514    1.1090 C   0  0  0  1  0  0  0  0  0  0  0  0
   -1.9227    4.1631    1.0107 C   0  0  0  1  0  0  0  0  0  0  0  0
   -1.0339    5.2149    0.8519 C   0  0  0  1  0  0  0  0  0  0  0  0
   -1.5057    6.5113    0.7671 C   0  0  0  1  0  0  0  0  0  0  0  0
   -2.8678    6.7592    0.8354 C   0  0  0  1  0  0  0  0  0  0  0  0
   -3.7538    5.7103    0.9937 C   0  0  0  1  0  0  0  0  0  0  0  0
   -3.2809    4.4101    1.0788 C   0  0  0  1  0  0  0  0  0  0  0  0
   -3.3061    8.0384    0.7445 O   0  0  0  1  0  0  0  0  0  0  0  0
   -0.6167    7.5232    0.6173 O   0  0  0  1  0  0  0  0  0  0  0  0
   -0.3768    2.7832    1.3880 H   0  0  0  1  0  0  0  0  0  0  0  0
   -1.9675    2.2378    1.8636 H   0  0  0  1  0  0  0  0  0  0  0  0
   -0.0122    5.0287    0.7966 H   0  0  0  1  0  0  0  0  0  0  0  0
   -4.7755    5.8966    1.0490 H   0  0  0  1  0  0  0  0  0  0  0  0
   -3.9479    3.6206    1.1939 H   0  0  0  1  0  0  0  0  0  0  0  0
   -4.1543    8.1187    1.1869 H   0  0  0  1  0  0  0  0  0  0  0  0
    0.1075    7.2333    0.0576 H   0  0  0  1  0  0  0  0  0  0  0  0
  1  4  1  0  0  0  0
  2  4  1  0  0  0  0
  2  5  2  0  0  0  0
  2  6  1  0  0  0  0
  3  4  1  0  0  0  0
  3  7  1  0  0  0  0
  3  8  1  0  0  0  0
  4 19  1  0  0  0  0
  6  9  1  0  0  0  0
  6 12  1  0  0  0  0
  8 10  1  0  0  0  0
  8 11  2  0  0  0  0
  9 13  1  0  0  0  0
  9 14  1  0  0  0  0
  9 15  1  0  0  0  0
 10 16  1  0  0  0  0
 10 17  1  0  0  0  0
 10 18  1  0  0  0  0
 19 20  1  0  0  0  0
 19 28  1  0  0  0  0
 19 29  1  0  0  0  0
 20 21  4  0  0  0  0
 20 25  4  0  0  0  0
 21 22  4  0  0  0  0
 21 30  1  0  0  0  0
 22 23  4  0  0  0  0
 22 27  1  0  0  0  0
 23 24  4  0  0  0  0
 23 26  1  0  0  0  0
 24 25  4  0  0  0  0
 24 31  1  0  0  0  0
 25 32  1  0  0  0  0
 26 33  1  0  0  0  0
 27 34  1  0  0  0  0
M  END
> <BCLConfClusterSize>
1

> <ConfClashScore>
0 

> <ConfOneFourInteractionScore>
-0.979134 

> <ConfScore>
0.0024938 

> <ConfScorePBest>
0.00435918 

> <ConfTolerance>
0.378187 

> <RosettaParamsInstructions>
M  ROOT 3
M  POLY_N_BB 3
M  POLY_CA_BB 4
M  POLY_C_BB 2
M  POLY_O_BB 5
M  POLY_IGNORE 9 10 11 12 13 14 15 16 17 18 
M  POLY_UPPER 6
M  POLY_LOWER 8
M  POLY_CHG 0
M  POLY_PROPERTIES ALPHA_AA L_AA PROTEIN AROMATIC POLYMER 
M  END

$$$$



 34 34  0  0  0  0  0  0  0  0999 V2000
    0.4902    2.8484    1.7086 H   0  0  0  1  0  0  0  0  0  0  0  0
   -0.7244    3.0100    3.4257 C   0  0  0  1  0  0  0  0  0  0  0  0
   -0.1089    0.9619    2.2816 N   0  0  0  1  0  0  0  0  0  0  0  0
   -0.3941    2.3748    2.0808 C   0  0  0  1  0  0  0  0  0  0  0  0
   -1.5149    2.4951    4.1993 O   0  0  0  1  0  0  0  0  0  0  0  0
   -0.0742    4.1524    3.6532 N   0  0  0  1  0  0  0  0  0  0  0  0
   -0.7909    0.3760    2.6715 H   0  0  0  1  0  0  0  0  0  0  0  0
    1.0807    0.4619    1.9355 C   0  0  0  1  0  0  0  0  0  0  0  0
   -0.3003    5.0267    4.7943 C   0  0  0  1  0  0  0  0  0  0  0  0
    1.2680   -1.0226    2.1811 C   0  0  0  1  0  0  0  0  0  0  0  0
    1.9713    1.1408    1.4515 O   0  0  0  1  0  0  0  0  0  0  0  0
    0.6070    4.4232    3.0028 H   0  0  0  1  0  0  0  0  0  0  0  0
   -1.3313    4.9848    5.0777 H   0  0  0  1  0  0  0  0  0  0  0  0
   -0.0440    6.0313    4.5299 H   0  0  0  1  0  0  0  0  0  0  0  0
    0.3080    4.7069    5.6144 H   0  0  0  1  0  0  0  0  0  0  0  0
    0.5375   -1.5717    1.6246 H   0  0  0  1  0  0  0  0  0  0  0  0
    1.1502   -1.2289    3.2244 H   0  0  0  1  0  0  0  0  0  0  0  0
    2.2484   -1.3148    1.8677 H   0  0  0  1  0  0  0  0  0  0  0  0
   -1.5125    2.6275    1.0664 C   0  0  0  1  0  0  0  0  0  0  0  0
   -1.9427    4.0689    1.0099 C   0  0  0  1  0  0  0  0  0  0  0  0
   -0.9955    5.0702    0.8618 C   0  0  0  1  0  0  0  0  0  0  0  0
   -1.3909    6.3937    0.8154 C   0  0  0  1  0  0  0  0  0  0  0  0
   -2.7347    6.7197    0.9115 C   0  0  0  1  0  0  0  0  0  0  0  0
   -3.6789    5.7212    1.0592 C   0  0  0  1  0  0  0  0  0  0  0  0
   -3.2827    4.3937    1.1058 C   0  0  0  1  0  0  0  0  0  0  0  0
   -3.0977    8.0243    0.8581 O   0  0  0  1  0  0  0  0  0  0  0  0
   -0.4099    7.3182    0.6745 O   0  0  0  1  0  0  0  0  0  0  0  0
   -2.3582    2.0299    1.3360 H   0  0  0  1  0  0  0  0  0  0  0  0
   -1.1648    2.3376    0.0969 H   0  0  0  1  0  0  0  0  0  0  0  0
    0.0124    4.8255    0.7857 H   0  0  0  1  0  0  0  0  0  0  0  0
   -4.6868    5.9660    1.1353 H   0  0  0  1  0  0  0  0  0  0  0  0
   -3.9936    3.6422    1.2128 H   0  0  0  1  0  0  0  0  0  0  0  0
   -3.9916    8.0944    0.5152 H   0  0  0  1  0  0  0  0  0  0  0  0
   -0.7740    8.1143    0.2805 H   0  0  0  1  0  0  0  0  0  0  0  0
  1  4  1  0  0  0  0
  2  4  1  0  0  0  0
  2  5  2  0  0  0  0
  2  6  1  0  0  0  0
  3  4  1  0  0  0  0
  3  7  1  0  0  0  0
  3  8  1  0  0  0  0
  4 19  1  0  0  0  0
  6  9  1  0  0  0  0
  6 12  1  0  0  0  0
  8 10  1  0  0  0  0
  8 11  2  0  0  0  0
  9 13  1  0  0  0  0
  9 14  1  0  0  0  0
  9 15  1  0  0  0  0
 10 16  1  0  0  0  0
 10 17  1  0  0  0  0
 10 18  1  0  0  0  0
 19 20  1  0  0  0  0
 19 28  1  0  0  0  0
 19 29  1  0  0  0  0
 20 21  4  0  0  0  0
 20 25  4  0  0  0  0
 21 22  4  0  0  0  0
 21 30  1  0  0  0  0
 22 23  4  0  0  0  0
 22 27  1  0  0  0  0
 23 24  4  0  0  0  0
 23 26  1  0  0  0  0
 24 25  4  0  0  0  0
 24 31  1  0  0  0  0
 25 32  1  0  0  0  0
 26 33  1  0  0  0  0
 27 34  1  0  0  0  0
M  END
> <BCLConfClusterSize>
1

> <ConfClashScore>
0 

> <ConfOneFourInteractionScore>
-0.990503 

> <ConfScore>
0.00552299 

> <ConfScorePBest>
0.0043307 

> <ConfTolerance>
0.423213 

> <RosettaParamsInstructions>
M  ROOT 3
M  POLY_N_BB 3
M  POLY_CA_BB 4
M  POLY_C_BB 2
M  POLY_O_BB 5
M  POLY_IGNORE 9 10 11 12 13 14 15 16 17 18 
M  POLY_UPPER 6
M  POLY_LOWER 8
M  POLY_CHG 0
M  POLY_PROPERTIES ALPHA_AA L_AA PROTEIN AROMATIC POLYMER 
M  END

$$$$



 34 34  0  0  0  0  0  0  0  0999 V2000
   -0.3566    2.5591   -0.5490 H   0  0  0  1  0  0  0  0  0  0  0  0
   -0.3269    0.6929    0.4548 C   0  0  0  1  0  0  0  0  0  0  0  0
   -2.2336    1.6829   -0.7197 N   0  0  0  1  0  0  0  0  0  0  0  0
   -1.0267    1.9743    0.0459 C   0  0  0  1  0  0  0  0  0  0  0  0
    0.5303    0.6872    1.3373 O   0  0  0  1  0  0  0  0  0  0  0  0
   -0.7045   -0.4138   -0.2045 N   0  0  0  1  0  0  0  0  0  0  0  0
   -2.2627    1.9687   -1.6567 H   0  0  0  1  0  0  0  0  0  0  0  0
   -3.3422    1.0274   -0.2062 C   0  0  0  1  0  0  0  0  0  0  0  0
   -0.1971   -1.7157    0.2024 C   0  0  0  1  0  0  0  0  0  0  0  0
   -4.5421    0.8213   -1.0876 C   0  0  0  1  0  0  0  0  0  0  0  0
   -3.3065    0.6388    0.9471 O   0  0  0  1  0  0  0  0  0  0  0  0
   -1.3232   -0.3449   -0.9614 H   0  0  0  1  0  0  0  0  0  0  0  0
    0.7121   -1.5888    0.7521 H   0  0  0  1  0  0  0  0  0  0  0  0
   -0.0085   -2.3120   -0.6658 H   0  0  0  1  0  0  0  0  0  0  0  0
   -0.9219   -2.2035    0.8201 H   0  0  0  1  0  0  0  0  0  0  0  0
   -4.8200    1.7522   -1.5360 H   0  0  0  1  0  0  0  0  0  0  0  0
   -5.3564    0.4515   -0.5003 H   0  0  0  1  0  0  0  0  0  0  0  0
   -4.3040    0.1136   -1.8539 H   0  0  0  1  0  0  0  0  0  0  0  0
   -1.3811    2.7632    1.2958 C   0  0  0  1  0  0  0  0  0  0  0  0
   -1.9217    4.1471    1.0537 C   0  0  0  1  0  0  0  0  0  0  0  0
   -1.0560    5.1870    0.7523 C   0  0  0  1  0  0  0  0  0  0  0  0
   -1.5526    6.4585    0.5354 C   0  0  0  1  0  0  0  0  0  0  0  0
   -2.9166    6.6928    0.6140 C   0  0  0  1  0  0  0  0  0  0  0  0
   -3.7795    5.6559    0.9146 C   0  0  0  1  0  0  0  0  0  0  0  0
   -3.2817    4.3806    1.1321 C   0  0  0  1  0  0  0  0  0  0  0  0
   -3.4935    7.9024    0.4123 O   0  0  0  1  0  0  0  0  0  0  0  0
   -0.6114    7.3922    0.2544 O   0  0  0  1  0  0  0  0  0  0  0  0
   -0.4964    2.8538    1.8908 H   0  0  0  1  0  0  0  0  0  0  0  0
   -2.1203    2.2101    1.8367 H   0  0  0  1  0  0  0  0  0  0  0  0
   -0.0331    5.0105    0.6893 H   0  0  0  1  0  0  0  0  0  0  0  0
   -4.8025    5.8324    0.9775 H   0  0  0  1  0  0  0  0  0  0  0  0
   -3.9315    3.5995    1.3543 H   0  0  0  1  0  0  0  0  0  0  0  0
   -3.5957    8.3531    1.2537 H   0  0  0  1  0  0  0  0  0  0  0  0
   -0.1224    7.6046    1.0528 H   0  0  0  1  0  0  0  0  0  0  0  0
  1  4  1  0  0  0  0
  2  4  1  0  0  0  0
  2  5  2  0  0  0  0
  2  6  1  0  0  0  0
  3  4  1  0  0  0  0
  3  7  1  0  0  0  0
  3  8  1  0  0  0  0
  4 19  1  0  0  0  0
  6  9  1  0  0  0  0
  6 12  1  0  0  0  0
  8 10  1  0  0  0  0
  8 11  2  0  0  0  0
  9 13  1  0  0  0  0
  9 14  1  0  0  0  0
  9 15  1  0  0  0  0
 10 16  1  0  0  0  0
 10 17  1  0  0  0  0
 10 18  1  0  0  0  0
 19 20  1  0  0  0  0
 19 28  1  0  0  0  0
 19 29  1  0  0  0  0
 20 21  4  0  0  0  0
 20 25  4  0  0  0  0
 21 22  4  0  0  0  0
 21 30  1  0  0  0  0
 22 23  4  0  0  0  0
 22 27  1  0  0  0  0
 23 24  4  0  0  0  0
 23 26  1  0  0  0  0
 24 25  4  0  0  0  0
 24 31  1  0  0  0  0
 25 32  1  0  0  0  0
 26 33  1  0  0  0  0
 27 34  1  0  0  0  0
M  END
> <BCLConfClusterSize>
1

> <ConfClashScore>
0 

> <ConfOneFourInteractionScore>
-0.95733 

> <ConfScore>
0.00913636 

> <ConfScorePBest>
0.00430222 

> <ConfTolerance>
0.259941 

> <RosettaParamsInstructions>
M  ROOT 3
M  POLY_N_BB 3
M  POLY_CA_BB 4
M  POLY_C_BB 2
M  POLY_O_BB 5
M  POLY_IGNORE 9 10 11 12 13 14 15 16 17 18 
M  POLY_UPPER 6
M  POLY_LOWER 8
M  POLY_CHG 0
M  POLY_PROPERTIES ALPHA_AA L_AA PROTEIN AROMATIC POLYMER 
M  END

$$$$



 34 34  0  0  0  0  0  0  0  0999 V2000
   -1.9527    1.9237   -0.6436 H   0  0  0  1  0  0  0  0  0  0  0  0
   -1.3660    0.2721    0.5321 C   0  0  0  1  0  0  0  0  0  0  0  0
   -3.4938    1.4534    0.6513 N   0  0  0  1  0  0  0  0  0  0  0  0
   -2.0738    1.6032    0.3700 C   0  0  0  1  0  0  0  0  0  0  0  0
   -1.7814   -0.5797    1.3133 O   0  0  0  1  0  0  0  0  0  0  0  0
   -0.2727    0.0968   -0.2268 N   0  0  0  1  0  0  0  0  0  0  0  0
   -3.7803    1.3140    1.5781 H   0  0  0  1  0  0  0  0  0  0  0  0
   -4.4205    1.4991   -0.3101 C   0  0  0  1  0  0  0  0  0  0  0  0
    0.5044   -1.1334   -0.1983 C   0  0  0  1  0  0  0  0  0  0  0  0
   -5.8766    1.6300    0.1541 C   0  0  0  1  0  0  0  0  0  0  0  0
   -4.1308    1.5190   -1.5057 O   0  0  0  1  0  0  0  0  0  0  0  0
    0.0121    0.8224   -0.8208 H   0  0  0  1  0  0  0  0  0  0  0  0
    0.7972   -1.3476    0.8083 H   0  0  0  1  0  0  0  0  0  0  0  0
    1.3772   -1.0178   -0.8064 H   0  0  0  1  0  0  0  0  0  0  0  0
   -0.0898   -1.9392   -0.5757 H   0  0  0  1  0  0  0  0  0  0  0  0
   -6.0028    2.5545    0.6778 H   0  0  0  1  0  0  0  0  0  0  0  0
   -6.1177    0.8158    0.8050 H   0  0  0  1  0  0  0  0  0  0  0  0
   -6.5250    1.6111   -0.6969 H   0  0  0  1  0  0  0  0  0  0  0  0
   -1.4482    2.6557    1.2759 C   0  0  0  1  0  0  0  0  0  0  0  0
   -1.9480    4.0611    1.0731 C   0  0  0  1  0  0  0  0  0  0  0  0
   -1.0084    5.0570    0.8563 C   0  0  0  1  0  0  0  0  0  0  0  0
   -1.4175    6.3640    0.6700 C   0  0  0  1  0  0  0  0  0  0  0  0
   -2.7674    6.6782    0.6945 C   0  0  0  1  0  0  0  0  0  0  0  0
   -3.7040    5.6851    0.9106 C   0  0  0  1  0  0  0  0  0  0  0  0
   -3.2940    4.3742    1.0975 C   0  0  0  1  0  0  0  0  0  0  0  0
   -3.1436    7.9661    0.5040 O   0  0  0  1  0  0  0  0  0  0  0  0
   -0.4797    7.3207    0.4651 O   0  0  0  1  0  0  0  0  0  0  0  0
   -0.3920    2.6531    1.1046 H   0  0  0  1  0  0  0  0  0  0  0  0
   -1.6462    2.3782    2.2901 H   0  0  0  1  0  0  0  0  0  0  0  0
    0.0042    4.8208    0.8339 H   0  0  0  1  0  0  0  0  0  0  0  0
   -4.7165    5.9214    0.9330 H   0  0  0  1  0  0  0  0  0  0  0  0
   -3.9991    3.6263    1.2561 H   0  0  0  1  0  0  0  0  0  0  0  0
   -3.6590    8.2641    1.2571 H   0  0  0  1  0  0  0  0  0  0  0  0
   -0.8981    8.1848    0.4651 H   0  0  0  1  0  0  0  0  0  0  0  0
  1  4  1  0  0  0  0
  2  4  1  0  0  0  0
  2  5  2  0  0  0  0
  2  6  1  0  0  0  0
  3  4  1  0  0  0  0
  3  7  1  0  0  0  0
  3  8  1  0  0  0  0
  4 19  1  0  0  0  0
  6  9  1  0  0  0  0
  6 12  1  0  0  0  0
  8 10  1  0  0  0  0
  8 11  2  0  0  0  0
  9 13  1  0  0  0  0
  9 14  1  0  0  0  0
  9 15  1  0  0  0  0
 10 16  1  0  0  0  0
 10 17  1  0  0  0  0
 10 18  1  0  0  0  0
 19 20  1  0  0  0  0
 19 28  1  0  0  0  0
 19 29  1  0  0  0  0
 20 21  4  0  0  0  0
 20 25  4  0  0  0  0
 21 22  4  0  0  0  0
 21 30  1  0  0  0  0
 22 23  4  0  0  0  0
 22 27  1  0  0  0  0
 23 24  4  0  0  0  0
 23 26  1  0  0  0  0
 24 25  4  0  0  0  0
 24 31  1  0  0  0  0
 25 32  1  0  0  0  0
 26 33  1  0  0  0  0
 27 34  1  0  0  0  0
M  END
> <BCLConfClusterSize>
1

> <ConfClashScore>
0 

> <ConfOneFourInteractionScore>
-0.981931 

> <ConfScore>
0.0124017 

> <ConfScorePBest>
0.00427374 

> <ConfTolerance>
0.543863 

> <RosettaParamsInstructions>
M  ROOT 3
M  POLY_N_BB 3
M  POLY_CA_BB 4
M  POLY_C_BB 2
M  POLY_O_BB 5
M  POLY_IGNORE 9 10 11 12 13 14 15 16 17 18 
M  POLY_UPPER 6
M  POLY_LOWER 8
M  POLY_CHG 0
M  POLY_PROPERTIES ALPHA_AA L_AA PROTEIN AROMATIC POLYMER 
M  END

$$$$



 34 34  0  0  0  0  0  0  0  0999 V2000
   -0.8356    3.1028    3.2132 H   0  0  0  1  0  0  0  0  0  0  0  0
   -2.7363    2.2103    3.2832 C   0  0  0  1  0  0  0  0  0  0  0  0
   -0.5768    1.1017    2.8119 N   0  0  0  1  0  0  0  0  0  0  0  0
   -1.3490    2.3284    2.6826 C   0  0  0  1  0  0  0  0  0  0  0  0
   -3.4473    1.2345    3.0583 O   0  0  0  1  0  0  0  0  0  0  0  0
   -3.1229    3.2326    4.0647 N   0  0  0  1  0  0  0  0  0  0  0  0
   -0.9797    0.2565    2.5225 H   0  0  0  1  0  0  0  0  0  0  0  0
    0.6624    1.0877    3.3112 C   0  0  0  1  0  0  0  0  0  0  0  0
   -4.4419    3.2872    4.6773 C   0  0  0  1  0  0  0  0  0  0  0  0
    1.3436   -0.2666    3.3453 C   0  0  0  1  0  0  0  0  0  0  0  0
    1.2305    2.0987    3.7219 O   0  0  0  1  0  0  0  0  0  0  0  0
   -2.4948    3.9669    4.2280 H   0  0  0  1  0  0  0  0  0  0  0  0
   -5.1599    3.6067    3.9512 H   0  0  0  1  0  0  0  0  0  0  0  0
   -4.4276    3.9795    5.4931 H   0  0  0  1  0  0  0  0  0  0  0  0
   -4.7078    2.3156    5.0380 H   0  0  0  1  0  0  0  0  0  0  0  0
    2.3642   -0.1456    3.6429 H   0  0  0  1  0  0  0  0  0  0  0  0
    1.3063   -0.7088    2.3717 H   0  0  0  1  0  0  0  0  0  0  0  0
    0.8410   -0.9009    4.0452 H   0  0  0  1  0  0  0  0  0  0  0  0
   -1.4160    2.7524    1.2145 C   0  0  0  1  0  0  0  0  0  0  0  0
   -1.9226    4.1578    1.0292 C   0  0  0  1  0  0  0  0  0  0  0  0
   -1.0351    5.1824    0.7393 C   0  0  0  1  0  0  0  0  0  0  0  0
   -1.5003    6.4734    0.5746 C   0  0  0  1  0  0  0  0  0  0  0  0
   -2.8548    6.7427    0.6939 C   0  0  0  1  0  0  0  0  0  0  0  0
   -3.7395    5.7210    0.9830 C   0  0  0  1  0  0  0  0  0  0  0  0
   -3.2732    4.4262    1.1483 C   0  0  0  1  0  0  0  0  0  0  0  0
   -3.3588    7.9909    0.5360 O   0  0  0  1  0  0  0  0  0  0  0  0
   -0.6124    7.4590    0.2969 O   0  0  0  1  0  0  0  0  0  0  0  0
   -2.0707    2.0833    0.6963 H   0  0  0  1  0  0  0  0  0  0  0  0
   -0.4335    2.6866    0.7959 H   0  0  0  1  0  0  0  0  0  0  0  0
   -0.0193    4.9797    0.6458 H   0  0  0  1  0  0  0  0  0  0  0  0
   -4.7553    5.9237    1.0765 H   0  0  0  1  0  0  0  0  0  0  0  0
   -3.9395    3.6567    1.3618 H   0  0  0  1  0  0  0  0  0  0  0  0
   -4.1584    8.0821    1.0593 H   0  0  0  1  0  0  0  0  0  0  0  0
    0.1060    7.4316    0.9331 H   0  0  0  1  0  0  0  0  0  0  0  0
  1  4  1  0  0  0  0
  2  4  1  0  0  0  0
  2  5  2  0  0  0  0
  2  6  1  0  0  0  0
  3  4  1  0  0  0  0
  3  7  1  0  0  0  0
  3  8  1  0  0  0  0
  4 19  1  0  0  0  0
  6  9  1  0  0  0  0
  6 12  1  0  0  0  0
  8 10  1  0  0  0  0
  8 11  2  0  0  0  0
  9 13  1  0  0  0  0
  9 14  1  0  0  0  0
  9 15  1  0  0  0  0
 10 16  1  0  0  0  0
 10 17  1  0  0  0  0
 10 18  1  0  0  0  0
 19 20  1  0  0  0  0
 19 28  1  0  0  0  0
 19 29  1  0  0  0  0
 20 21  4  0  0  0  0
 20 25  4  0  0  0  0
 21 22  4  0  0  0  0
 21 30  1  0  0  0  0
 22 23  4  0  0  0  0
 22 27  1  0  0  0  0
 23 24  4  0  0  0  0
 23 26  1  0  0  0  0
 24 25  4  0  0  0  0
 24 31  1  0  0  0  0
 25 32  1  0  0  0  0
 26 33  1  0  0  0  0
 27 34  1  0  0  0  0
M  END
> <BCLConfClusterSize>
1

> <ConfClashScore>
0 

> <ConfOneFourInteractionScore>
-0.982823 

> <ConfScore>
0.0129046 

> <ConfScorePBest>
0.00424526 

> <ConfTolerance>
0.499038 

> <RosettaParamsInstructions>
M  ROOT 3
M  POLY_N_BB 3
M  POLY_CA_BB 4
M  POLY_C_BB 2
M  POLY_O_BB 5
M  POLY_IGNORE 9 10 11 12 13 14 15 16 17 18 
M  POLY_UPPER 6
M  POLY_LOWER 8
M  POLY_CHG 0
M  POLY_PROPERTIES ALPHA_AA L_AA PROTEIN AROMATIC POLYMER 
M  END

$$$$



 34 34  0  0  0  0  0  0  0  0999 V2000
    0.3231    3.0905    0.0611 H   0  0  0  1  0  0  0  0  0  0  0  0
    0.6812    2.8687    2.1517 C   0  0  0  1  0  0  0  0  0  0  0  0
    0.3853    1.0728    0.5716 N   0  0  0  1  0  0  0  0  0  0  0  0
    0.0014    2.4468    0.8530 C   0  0  0  1  0  0  0  0  0  0  0  0
    1.0095    4.0359    2.3579 O   0  0  0  1  0  0  0  0  0  0  0  0
    0.8727    1.8622    3.0092 N   0  0  0  1  0  0  0  0  0  0  0  0
   -0.2766    0.3544    0.6499 H   0  0  0  1  0  0  0  0  0  0  0  0
    1.6438    0.7865    0.2049 C   0  0  0  1  0  0  0  0  0  0  0  0
    1.6248    2.0256    4.2443 C   0  0  0  1  0  0  0  0  0  0  0  0
    1.9843   -0.6883    0.1147 C   0  0  0  1  0  0  0  0  0  0  0  0
    2.4802    1.6503   -0.0455 O   0  0  0  1  0  0  0  0  0  0  0  0
    0.4935    0.9833    2.7991 H   0  0  0  1  0  0  0  0  0  0  0  0
    2.0981    2.9852    4.2500 H   0  0  0  1  0  0  0  0  0  0  0  0
    2.3696    1.2604    4.3119 H   0  0  0  1  0  0  0  0  0  0  0  0
    0.9596    1.9513    5.0791 H   0  0  0  1  0  0  0  0  0  0  0  0
    2.9967   -0.8408    0.4257 H   0  0  0  1  0  0  0  0  0  0  0  0
    1.8682   -1.0197   -0.8960 H   0  0  0  1  0  0  0  0  0  0  0  0
    1.3284   -1.2451    0.7508 H   0  0  0  1  0  0  0  0  0  0  0  0
   -1.4997    2.6135    1.0498 C   0  0  0  1  0  0  0  0  0  0  0  0
   -1.9453    4.0504    0.9970 C   0  0  0  1  0  0  0  0  0  0  0  0
   -1.0142    5.0587    0.8020 C   0  0  0  1  0  0  0  0  0  0  0  0
   -1.4235    6.3781    0.7589 C   0  0  0  1  0  0  0  0  0  0  0  0
   -2.7655    6.6928    0.9054 C   0  0  0  1  0  0  0  0  0  0  0  0
   -3.6937    5.6874    1.0998 C   0  0  0  1  0  0  0  0  0  0  0  0
   -3.2835    4.3640    1.1430 C   0  0  0  1  0  0  0  0  0  0  0  0
   -3.1426    7.9936    0.8543 O   0  0  0  1  0  0  0  0  0  0  0  0
   -0.5505    7.3984    0.5759 O   0  0  0  1  0  0  0  0  0  0  0  0
   -1.7650    2.2095    2.0044 H   0  0  0  1  0  0  0  0  0  0  0  0
   -2.0065    2.0712    0.2791 H   0  0  0  1  0  0  0  0  0  0  0  0
   -0.0079    4.8223    0.6881 H   0  0  0  1  0  0  0  0  0  0  0  0
   -4.7000    5.9238    1.2137 H   0  0  0  1  0  0  0  0  0  0  0  0
   -3.9825    3.6073    1.2853 H   0  0  0  1  0  0  0  0  0  0  0  0
   -3.5401    8.1786    0.0003 H   0  0  0  1  0  0  0  0  0  0  0  0
   -0.9303    8.2106    0.9189 H   0  0  0  1  0  0  0  0  0  0  0  0
  1  4  1  0  0  0  0
  2  4  1  0  0  0  0
  2  5  2  0  0  0  0
  2  6  1  0  0  0  0
  3  4  1  0  0  0  0
  3  7  1  0  0  0  0
  3  8  1  0  0  0  0
  4 19  1  0  0  0  0
  6  9  1  0  0  0  0
  6 12  1  0  0  0  0
  8 10  1  0  0  0  0
  8 11  2  0  0  0  0
  9 13  1  0  0  0  0
  9 14  1  0  0  0  0
  9 15  1  0  0  0  0
 10 16  1  0  0  0  0
 10 17  1  0  0  0  0
 10 18  1  0  0  0  0
 19 20  1  0  0  0  0
 19 28  1  0  0  0  0
 19 29  1  0  0  0  0
 20 21  4  0  0  0  0
 20 25  4  0  0  0  0
 21 22  4  0  0  0  0
 21 30  1  0  0  0  0
 22 23  4  0  0  0  0
 22 27  1  0  0  0  0
 23 24  4  0  0  0  0
 23 26  1  0  0  0  0
 24 25  4  0  0  0  0
 24 31  1  0  0  0  0
 25 32  1  0  0  0  0
 26 33  1  0  0  0  0
 27 34  1  0  0  0  0
M  END
> <BCLConfClusterSize>
1

> <ConfClashScore>
0 

> <ConfOneFourInteractionScore>
-0.934209 

> <ConfScore>
0.0139915 

> <ConfScorePBest>
0.00421678 

> <ConfTolerance>
0.827158 

> <RosettaParamsInstructions>
M  ROOT 3
M  POLY_N_BB 3
M  POLY_CA_BB 4
M  POLY_C_BB 2
M  POLY_O_BB 5
M  POLY_IGNORE 9 10 11 12 13 14 15 16 17 18 
M  POLY_UPPER 6
M  POLY_LOWER 8
M  POLY_CHG 0
M  POLY_PROPERTIES ALPHA_AA L_AA PROTEIN AROMATIC POLYMER 
M  END

$$$$



 34 34  0  0  0  0  0  0  0  0999 V2000
    0.2012    3.0915    2.5338 H   0  0  0  1  0  0  0  0  0  0  0  0
   -1.5733    2.9554    3.6626 C   0  0  0  1  0  0  0  0  0  0  0  0
   -0.2886    1.0958    2.6422 N   0  0  0  1  0  0  0  0  0  0  0  0
   -0.6839    2.4905    2.5147 C   0  0  0  1  0  0  0  0  0  0  0  0
   -2.1295    2.1486    4.4065 O   0  0  0  1  0  0  0  0  0  0  0  0
   -1.7016    4.2784    3.7983 N   0  0  0  1  0  0  0  0  0  0  0  0
   -0.6320    0.4304    2.0100 H   0  0  0  1  0  0  0  0  0  0  0  0
    0.5487    0.7174    3.6276 C   0  0  0  1  0  0  0  0  0  0  0  0
   -2.5468    4.9367    4.7833 C   0  0  0  1  0  0  0  0  0  0  0  0
    0.8934   -0.7672    3.6703 C   0  0  0  1  0  0  0  0  0  0  0  0
    1.0152    1.5050    4.4496 O   0  0  0  1  0  0  0  0  0  0  0  0
   -1.1879    4.8483    3.1887 H   0  0  0  1  0  0  0  0  0  0  0  0
   -2.1464    4.7756    5.7623 H   0  0  0  1  0  0  0  0  0  0  0  0
   -3.5360    4.5319    4.7317 H   0  0  0  1  0  0  0  0  0  0  0  0
   -2.5795    5.9867    4.5800 H   0  0  0  1  0  0  0  0  0  0  0  0
    0.7497   -1.1388    4.6633 H   0  0  0  1  0  0  0  0  0  0  0  0
    1.9148   -0.9043    3.3827 H   0  0  0  1  0  0  0  0  0  0  0  0
    0.2574   -1.3003    2.9947 H   0  0  0  1  0  0  0  0  0  0  0  0
   -1.3602    2.7212    1.1623 C   0  0  0  1  0  0  0  0  0  0  0  0
   -1.9302    4.1068    1.0169 C   0  0  0  1  0  0  0  0  0  0  0  0
   -1.0891    5.1805    0.7691 C   0  0  0  1  0  0  0  0  0  0  0  0
   -1.6126    6.4532    0.6410 C   0  0  0  1  0  0  0  0  0  0  0  0
   -2.9793    6.6553    0.7549 C   0  0  0  1  0  0  0  0  0  0  0  0
   -3.8178    5.5848    1.0019 C   0  0  0  1  0  0  0  0  0  0  0  0
   -3.2929    4.3082    1.1305 C   0  0  0  1  0  0  0  0  0  0  0  0
   -3.5396    7.8831    0.6318 O   0  0  0  1  0  0  0  0  0  0  0  0
   -0.7694    7.4873    0.4041 O   0  0  0  1  0  0  0  0  0  0  0  0
   -2.1548    2.0129    1.0537 H   0  0  0  1  0  0  0  0  0  0  0  0
   -0.6367    2.5677    0.3891 H   0  0  0  1  0  0  0  0  0  0  0  0
   -0.0641    5.0283    0.6796 H   0  0  0  1  0  0  0  0  0  0  0  0
   -4.8427    5.7369    1.0914 H   0  0  0  1  0  0  0  0  0  0  0  0
   -3.9244    3.5022    1.3123 H   0  0  0  1  0  0  0  0  0  0  0  0
   -2.8537    8.5328    0.4615 H   0  0  0  1  0  0  0  0  0  0  0  0
   -0.4034    7.7991    1.2351 H   0  0  0  1  0  0  0  0  0  0  0  0
  1  4  1  0  0  0  0
  2  4  1  0  0  0  0
  2  5  2  0  0  0  0
  2  6  1  0  0  0  0
  3  4  1  0  0  0  0
  3  7  1  0  0  0  0
  3  8  1  0  0  0  0
  4 19  1  0  0  0  0
  6  9  1  0  0  0  0
  6 12  1  0  0  0  0
  8 10  1  0  0  0  0
  8 11  2  0  0  0  0
  9 13  1  0  0  0  0
  9 14  1  0  0  0  0
  9 15  1  0  0  0  0
 10 16  1  0  0  0  0
 10 17  1  0  0  0  0
 10 18  1  0  0  0  0
 19 20  1  0  0  0  0
 19 28  1  0  0  0  0
 19 29  1  0  0  0  0
 20 21  4  0  0  0  0
 20 25  4  0  0  0  0
 21 22  4  0  0  0  0
 21 30  1  0  0  0  0
 22 23  4  0  0  0  0
 22 27  1  0  0  0  0
 23 24  4  0  0  0  0
 23 26  1  0  0  0  0
 24 25  4  0  0  0  0
 24 31  1  0  0  0  0
 25 32  1  0  0  0  0
 26 33  1  0  0  0  0
 27 34  1  0  0  0  0
M  END
> <BCLConfClusterSize>
1

> <ConfClashScore>
0 

> <ConfOneFourInteractionScore>
-0.985807 

> <ConfScore>
0.0140688 

> <ConfScorePBest>
0.0041883 

> <ConfTolerance>
0.566792 

> <RosettaParamsInstructions>
M  ROOT 3
M  POLY_N_BB 3
M  POLY_CA_BB 4
M  POLY_C_BB 2
M  POLY_O_BB 5
M  POLY_IGNORE 9 10 11 12 13 14 15 16 17 18 
M  POLY_UPPER 6
M  POLY_LOWER 8
M  POLY_CHG 0
M  POLY_PROPERTIES ALPHA_AA L_AA PROTEIN AROMATIC POLYMER 
M  END

$$$$



 34 34  0  0  0  0  0  0  0  0999 V2000
   -0.6013    3.0069    3.1290 H   0  0  0  1  0  0  0  0  0  0  0  0
   -0.0773    1.0526    2.5013 C   0  0  0  1  0  0  0  0  0  0  0  0
    0.9146    3.1510    1.7259 N   0  0  0  1  0  0  0  0  0  0  0  0
   -0.3128    2.5325    2.2143 C   0  0  0  1  0  0  0  0  0  0  0  0
    0.6059    0.3590    1.7526 O   0  0  0  1  0  0  0  0  0  0  0  0
   -0.6609    0.5737    3.6114 N   0  0  0  1  0  0  0  0  0  0  0  0
    1.3708    2.7198    0.9733 H   0  0  0  1  0  0  0  0  0  0  0  0
    1.4660    4.2658    2.2292 C   0  0  0  1  0  0  0  0  0  0  0  0
   -0.5810   -0.8137    4.0434 C   0  0  0  1  0  0  0  0  0  0  0  0
    2.6810    4.7915    1.4899 C   0  0  0  1  0  0  0  0  0  0  0  0
    1.0315    4.8340    3.2175 O   0  0  0  1  0  0  0  0  0  0  0  0
   -1.1733    1.1982    4.1662 H   0  0  0  1  0  0  0  0  0  0  0  0
   -1.3846   -1.0246    4.7177 H   0  0  0  1  0  0  0  0  0  0  0  0
    0.3528   -0.9796    4.5387 H   0  0  0  1  0  0  0  0  0  0  0  0
   -0.6526   -1.4569    3.1913 H   0  0  0  1  0  0  0  0  0  0  0  0
    3.5223    4.1622    1.6926 H   0  0  0  1  0  0  0  0  0  0  0  0
    2.8940    5.7877    1.8172 H   0  0  0  1  0  0  0  0  0  0  0  0
    2.4841    4.7954    0.4382 H   0  0  0  1  0  0  0  0  0  0  0  0
   -1.4444    2.7093    1.2152 C   0  0  0  1  0  0  0  0  0  0  0  0
   -1.9284    4.1228    1.0319 C   0  0  0  1  0  0  0  0  0  0  0  0
   -1.0264    5.1313    0.7303 C   0  0  0  1  0  0  0  0  0  0  0  0
   -1.4709    6.4298    0.5675 C   0  0  0  1  0  0  0  0  0  0  0  0
   -2.8192    6.7228    0.7003 C   0  0  0  1  0  0  0  0  0  0  0  0
   -3.7184    5.7173    1.0009 C   0  0  0  1  0  0  0  0  0  0  0  0
   -3.2729    4.4148    1.1643 C   0  0  0  1  0  0  0  0  0  0  0  0
   -3.2310    8.0028    0.5307 O   0  0  0  1  0  0  0  0  0  0  0  0
   -0.5690    7.3992    0.2782 O   0  0  0  1  0  0  0  0  0  0  0  0
   -2.2721    2.1172    1.5457 H   0  0  0  1  0  0  0  0  0  0  0  0
   -1.1054    2.3507    0.2657 H   0  0  0  1  0  0  0  0  0  0  0  0
   -0.0153    4.9108    0.6267 H   0  0  0  1  0  0  0  0  0  0  0  0
   -4.7294    5.9378    1.1046 H   0  0  0  1  0  0  0  0  0  0  0  0
   -3.9501    3.6575    1.3866 H   0  0  0  1  0  0  0  0  0  0  0  0
   -4.1265    8.0981    0.8635 H   0  0  0  1  0  0  0  0  0  0  0  0
   -0.1773    7.7255    1.0917 H   0  0  0  1  0  0  0  0  0  0  0  0
  1  4  1  0  0  0  0
  2  4  1  0  0  0  0
  2  5  2  0  0  0  0
  2  6  1  0  0  0  0
  3  4  1  0  0  0  0
  3  7  1  0  0  0  0
  3  8  1  0  0  0  0
  4 19  1  0  0  0  0
  6  9  1  0  0  0  0
  6 12  1  0  0  0  0
  8 10  1  0  0  0  0
  8 11  2  0  0  0  0
  9 13  1  0  0  0  0
  9 14  1  0  0  0  0
  9 15  1  0  0  0  0
 10 16  1  0  0  0  0
 10 17  1  0  0  0  0
 10 18  1  0  0  0  0
 19 20  1  0  0  0  0
 19 28  1  0  0  0  0
 19 29  1  0  0  0  0
 20 21  4  0  0  0  0
 20 25  4  0  0  0  0
 21 22  4  0  0  0  0
 21 30  1  0  0  0  0
 22 23  4  0  0  0  0
 22 27  1  0  0  0  0
 23 24  4  0  0  0  0
 23 26  1  0  0  0  0
 24 25  4  0  0  0  0
 24 31  1  0  0  0  0
 25 32  1  0  0  0  0
 26 33  1  0  0  0  0
 27 34  1  0  0  0  0
M  END
> <BCLConfClusterSize>
1

> <ConfClashScore>
0 

> <ConfOneFourInteractionScore>
-0.986627 

> <ConfScore>
0.0142591 

> <ConfScorePBest>
0.00415982 

> <ConfTolerance>
0.600451 

> <RosettaParamsInstructions>
M  ROOT 3
M  POLY_N_BB 3
M  POLY_CA_BB 4
M  POLY_C_BB 2
M  POLY_O_BB 5
M  POLY_IGNORE 9 10 11 12 13 14 15 16 17 18 
M  POLY_UPPER 6
M  POLY_LOWER 8
M  POLY_CHG 0
M  POLY_PROPERTIES ALPHA_AA L_AA PROTEIN AROMATIC POLYMER 
M  END

$$$$



 34 34  0  0  0  0  0  0  0  0999 V2000
   -1.7548    2.2882    3.0618 H   0  0  0  1  0  0  0  0  0  0  0  0
   -0.5526    0.7170    2.3107 C   0  0  0  1  0  0  0  0  0  0  0  0
    0.1730    2.9940    2.8162 N   0  0  0  1  0  0  0  0  0  0  0  0
   -0.9503    2.1868    2.3637 C   0  0  0  1  0  0  0  0  0  0  0  0
   -1.0587   -0.0472    1.5055 O   0  0  0  1  0  0  0  0  0  0  0  0
    0.3737    0.3340    3.1941 N   0  0  0  1  0  0  0  0  0  0  0  0
    0.1219    3.4252    3.6947 H   0  0  0  1  0  0  0  0  0  0  0  0
    1.2676    3.1669    2.0781 C   0  0  0  1  0  0  0  0  0  0  0  0
    0.8082   -1.0547    3.1735 C   0  0  0  1  0  0  0  0  0  0  0  0
    2.4062    3.9716    2.7106 C   0  0  0  1  0  0  0  0  0  0  0  0
    1.4220    2.6520    0.9714 O   0  0  0  1  0  0  0  0  0  0  0  0
    0.7498    0.9703    3.8377 H   0  0  0  1  0  0  0  0  0  0  0  0
    0.8249   -1.4088    2.1640 H   0  0  0  1  0  0  0  0  0  0  0  0
    0.1293   -1.6491    3.7486 H   0  0  0  1  0  0  0  0  0  0  0  0
    1.7899   -1.1273    3.5929 H   0  0  0  1  0  0  0  0  0  0  0  0
    2.0231    4.8965    3.0882 H   0  0  0  1  0  0  0  0  0  0  0  0
    3.1548    4.1707    1.9725 H   0  0  0  1  0  0  0  0  0  0  0  0
    2.8365    3.4099    3.5133 H   0  0  0  1  0  0  0  0  0  0  0  0
   -1.4440    2.6571    1.0017 C   0  0  0  1  0  0  0  0  0  0  0  0
   -1.9359    4.0797    1.0118 C   0  0  0  1  0  0  0  0  0  0  0  0
   -1.0577    5.1260    0.7759 C   0  0  0  1  0  0  0  0  0  0  0  0
   -1.5312    6.4225    0.7041 C   0  0  0  1  0  0  0  0  0  0  0  0
   -2.8847    6.6761    0.8627 C   0  0  0  1  0  0  0  0  0  0  0  0
   -3.7601    5.6328    1.0979 C   0  0  0  1  0  0  0  0  0  0  0  0
   -3.2855    4.3324    1.1700 C   0  0  0  1  0  0  0  0  0  0  0  0
   -3.3251    7.9553    0.7828 O   0  0  0  1  0  0  0  0  0  0  0  0
   -0.7114    7.4783    0.4806 O   0  0  0  1  0  0  0  0  0  0  0  0
   -2.2471    2.0212    0.6925 H   0  0  0  1  0  0  0  0  0  0  0  0
   -0.6380    2.5803    0.3022 H   0  0  0  1  0  0  0  0  0  0  0  0
   -0.0427    4.9354    0.6529 H   0  0  0  1  0  0  0  0  0  0  0  0
   -4.7751    5.8234    1.2209 H   0  0  0  1  0  0  0  0  0  0  0  0
   -3.9449    3.5470    1.3430 H   0  0  0  1  0  0  0  0  0  0  0  0
   -3.1348    8.3058   -0.0904 H   0  0  0  1  0  0  0  0  0  0  0  0
   -0.6462    8.0080    1.2786 H   0  0  0  1  0  0  0  0  0  0  0  0
  1  4  1  0  0  0  0
  2  4  1  0  0  0  0
  2  5  2  0  0  0  0
  2  6  1  0  0  0  0
  3  4  1  0  0  0  0
  3  7  1  0  0  0  0
  3  8  1  0  0  0  0
  4 19  1  0  0  0  0
  6  9  1  0  0  0  0
  6 12  1  0  0  0  0
  8 10  1  0  0  0  0
  8 11  2  0  0  0  0
  9 13  1  0  0  0  0
  9 14  1  0  0  0  0
  9 15  1  0  0  0  0
 10 16  1  0  0  0  0
 10 17  1  0  0  0  0
 10 18  1  0  0  0  0
 19 20  1  0  0  0  0
 19 28  1  0  0  0  0
 19 29  1  0  0  0  0
 20 21  4  0  0  0  0
 20 25  4  0  0  0  0
 21 22  4  0  0  0  0
 21 30  1  0  0  0  0
 22 23  4  0  0  0  0
 22 27  1  0  0  0  0
 23 24  4  0  0  0  0
 23 26  1  0  0  0  0
 24 25  4  0  0  0  0
 24 31  1  0  0  0  0
 25 32  1  0  0  0  0
 26 33  1  0  0  0  0
 27 34  1  0  0  0  0
M  END
> <BCLConfClusterSize>
1

> <ConfClashScore>
0 

> <ConfOneFourInteractionScore>
-0.956972 

> <ConfScore>
0.0156804 

> <ConfScorePBest>
0.00413134 

> <ConfTolerance>
0.247707 

> <RosettaParamsInstructions>
M  ROOT 3
M  POLY_N_BB 3
M  POLY_CA_BB 4
M  POLY_C_BB 2
M  POLY_O_BB 5
M  POLY_IGNORE 9 10 11 12 13 14 15 16 17 18 
M  POLY_UPPER 6
M  POLY_LOWER 8
M  POLY_CHG 0
M  POLY_PROPERTIES ALPHA_AA L_AA PROTEIN AROMATIC POLYMER 
M  END

$$$$



 34 34  0  0  0  0  0  0  0  0999 V2000
   -1.7667    2.0925   -0.7136 H   0  0  0  1  0  0  0  0  0  0  0  0
    0.1387    2.9950   -0.7188 C   0  0  0  1  0  0  0  0  0  0  0  0
   -0.3970    0.7723    0.0779 N   0  0  0  1  0  0  0  0  0  0  0  0
   -0.9207    2.1232   -0.0591 C   0  0  0  1  0  0  0  0  0  0  0  0
    1.3332    2.8541   -0.4600 O   0  0  0  1  0  0  0  0  0  0  0  0
   -0.3180    3.9112   -1.5872 N   0  0  0  1  0  0  0  0  0  0  0  0
   -0.4460    0.3325    0.9522 H   0  0  0  1  0  0  0  0  0  0  0  0
    0.1472    0.1123   -0.9449 C   0  0  0  1  0  0  0  0  0  0  0  0
    0.5706    4.8135   -2.3043 C   0  0  0  1  0  0  0  0  0  0  0  0
    0.7202   -1.2529   -0.6178 C   0  0  0  1  0  0  0  0  0  0  0  0
    0.1908    0.5659   -2.0877 O   0  0  0  1  0  0  0  0  0  0  0  0
   -1.2833    3.9747   -1.7436 H   0  0  0  1  0  0  0  0  0  0  0  0
    1.3168    4.2453   -2.8193 H   0  0  0  1  0  0  0  0  0  0  0  0
    1.0433    5.4754   -1.6090 H   0  0  0  1  0  0  0  0  0  0  0  0
    0.0050    5.3831   -3.0117 H   0  0  0  1  0  0  0  0  0  0  0  0
    1.0036   -1.7476   -1.5232 H   0  0  0  1  0  0  0  0  0  0  0  0
   -0.0181   -1.8366   -0.1087 H   0  0  0  1  0  0  0  0  0  0  0  0
    1.5794   -1.1378    0.0095 H   0  0  0  1  0  0  0  0  0  0  0  0
   -1.4028    2.6692    1.2888 C   0  0  0  1  0  0  0  0  0  0  0  0
   -1.9490    4.0559    1.0777 C   0  0  0  1  0  0  0  0  0  0  0  0
   -1.0420    5.0855    0.8805 C   0  0  0  1  0  0  0  0  0  0  0  0
   -1.4943    6.3772    0.6877 C   0  0  0  1  0  0  0  0  0  0  0  0
   -2.8549    6.6423    0.6860 C   0  0  0  1  0  0  0  0  0  0  0  0
   -3.7591    5.6157    0.8826 C   0  0  0  1  0  0  0  0  0  0  0  0
   -3.3057    4.3201    1.0761 C   0  0  0  1  0  0  0  0  0  0  0  0
   -3.2737    7.9162    0.4896 O   0  0  0  1  0  0  0  0  0  0  0  0
   -0.5880    7.3676    0.5023 O   0  0  0  1  0  0  0  0  0  0  0  0
   -0.5840    2.7053    1.9766 H   0  0  0  1  0  0  0  0  0  0  0  0
   -2.1706    2.0352    1.6805 H   0  0  0  1  0  0  0  0  0  0  0  0
   -0.0213    4.8861    0.8778 H   0  0  0  1  0  0  0  0  0  0  0  0
   -4.7797    5.8152    0.8854 H   0  0  0  1  0  0  0  0  0  0  0  0
   -3.9862    3.5470    1.2200 H   0  0  0  1  0  0  0  0  0  0  0  0
   -2.9877    8.4644    1.2239 H   0  0  0  1  0  0  0  0  0  0  0  0
   -1.0347    8.2172    0.5138 H   0  0  0  1  0  0  0  0  0  0  0  0
  1  4  1  0  0  0  0
  2  4  1  0  0  0  0
  2  5  2  0  0  0  0
  2  6  1  0  0  0  0
  3  4  1  0  0  0  0
  3  7  1  0  0  0  0
  3  8  1  0  0  0  0
  4 19  1  0  0  0  0
  6  9  1  0  0  0  0
  6 12  1  0  0  0  0
  8 10  1  0  0  0  0
  8 11  2  0  0  0  0
  9 13  1  0  0  0  0
  9 14  1  0  0  0  0
  9 15  1  0  0  0  0
 10 16  1  0  0  0  0
 10 17  1  0  0  0  0
 10 18  1  0  0  0  0
 19 20  1  0  0  0  0
 19 28  1  0  0  0  0
 19 29  1  0  0  0  0
 20 21  4  0  0  0  0
 20 25  4  0  0  0  0
 21 22  4  0  0  0  0
 21 30  1  0  0  0  0
 22 23  4  0  0  0  0
 22 27  1  0  0  0  0
 23 24  4  0  0  0  0
 23 26  1  0  0  0  0
 24 25  4  0  0  0  0
 24 31  1  0  0  0  0
 25 32  1  0  0  0  0
 26 33  1  0  0  0  0
 27 34  1  0  0  0  0
M  END
> <BCLConfClusterSize>
1

> <ConfClashScore>
0 

> <ConfOneFourInteractionScore>
-0.985807 

> <ConfScore>
0.0170519 

> <ConfScorePBest>
0.00410286 

> <ConfTolerance>
0.545379 

> <RosettaParamsInstructions>
M  ROOT 3
M  POLY_N_BB 3
M  POLY_CA_BB 4
M  POLY_C_BB 2
M  POLY_O_BB 5
M  POLY_IGNORE 9 10 11 12 13 14 15 16 17 18 
M  POLY_UPPER 6
M  POLY_LOWER 8
M  POLY_CHG 0
M  POLY_PROPERTIES ALPHA_AA L_AA PROTEIN AROMATIC POLYMER 
M  END

$$$$



 34 34  0  0  0  0  0  0  0  0999 V2000
    0.6054    3.3705    0.5078 H   0  0  0  1  0  0  0  0  0  0  0  0
    0.5325    1.2721    0.3464 C   0  0  0  1  0  0  0  0  0  0  0  0
   -0.2838    2.9279   -1.2969 N   0  0  0  1  0  0  0  0  0  0  0  0
   -0.0764    2.6451    0.1155 C   0  0  0  1  0  0  0  0  0  0  0  0
    0.6913    0.8269    1.4823 O   0  0  0  1  0  0  0  0  0  0  0  0
    0.8777    0.5938   -0.7594 N   0  0  0  1  0  0  0  0  0  0  0  0
   -1.1469    2.6769   -1.6873 H   0  0  0  1  0  0  0  0  0  0  0  0
    0.6125    3.5030   -2.1002 C   0  0  0  1  0  0  0  0  0  0  0  0
    1.5815   -0.6800   -0.7507 C   0  0  0  1  0  0  0  0  0  0  0  0
    0.1187    3.8614   -3.4883 C   0  0  0  1  0  0  0  0  0  0  0  0
    1.7681    3.7353   -1.7551 O   0  0  0  1  0  0  0  0  0  0  0  0
    0.6406    0.9809   -1.6279 H   0  0  0  1  0  0  0  0  0  0  0  0
    1.0161   -1.3967   -0.1925 H   0  0  0  1  0  0  0  0  0  0  0  0
    2.5425   -0.5530   -0.2975 H   0  0  0  1  0  0  0  0  0  0  0  0
    1.7035   -1.0267   -1.7555 H   0  0  0  1  0  0  0  0  0  0  0  0
    0.8999    4.3533   -4.0294 H   0  0  0  1  0  0  0  0  0  0  0  0
   -0.7254    4.5141   -3.4089 H   0  0  0  1  0  0  0  0  0  0  0  0
   -0.1668    2.9697   -4.0063 H   0  0  0  1  0  0  0  0  0  0  0  0
   -1.3647    2.7492    0.9213 C   0  0  0  1  0  0  0  0  0  0  0  0
   -1.9283    4.1446    0.9545 C   0  0  0  1  0  0  0  0  0  0  0  0
   -1.0799    5.2376    0.8688 C   0  0  0  1  0  0  0  0  0  0  0  0
   -1.5977    6.5185    0.9048 C   0  0  0  1  0  0  0  0  0  0  0  0
   -2.9656    6.7104    1.0212 C   0  0  0  1  0  0  0  0  0  0  0  0
   -3.8113    5.6206    1.1066 C   0  0  0  1  0  0  0  0  0  0  0  0
   -3.2922    4.3357    1.0705 C   0  0  0  1  0  0  0  0  0  0  0  0
   -3.5203    7.9464    1.0554 O   0  0  0  1  0  0  0  0  0  0  0  0
   -0.7475    7.5709    0.8247 O   0  0  0  1  0  0  0  0  0  0  0  0
   -1.1643    2.4388    1.9255 H   0  0  0  1  0  0  0  0  0  0  0  0
   -2.0929    2.0980    0.4847 H   0  0  0  1  0  0  0  0  0  0  0  0
   -0.0540    5.0937    0.7775 H   0  0  0  1  0  0  0  0  0  0  0  0
   -4.8372    5.7645    1.1979 H   0  0  0  1  0  0  0  0  0  0  0  0
   -3.9290    3.5157    1.1308 H   0  0  0  1  0  0  0  0  0  0  0  0
   -3.3178    8.4113    0.2402 H   0  0  0  1  0  0  0  0  0  0  0  0
   -0.0337    7.3608    0.2181 H   0  0  0  1  0  0  0  0  0  0  0  0
  1  4  1  0  0  0  0
  2  4  1  0  0  0  0
  2  5  2  0  0  0  0
  2  6  1  0  0  0  0
  3  4  1  0  0  0  0
  3  7  1  0  0  0  0
  3  8  1  0  0  0  0
  4 19  1  0  0  0  0
  6  9  1  0  0  0  0
  6 12  1  0  0  0  0
  8 10  1  0  0  0  0
  8 11  2  0  0  0  0
  9 13  1  0  0  0  0
  9 14  1  0  0  0  0
  9 15  1  0  0  0  0
 10 16  1  0  0  0  0
 10 17  1  0  0  0  0
 10 18  1  0  0  0  0
 19 20  1  0  0  0  0
 19 28  1  0  0  0  0
 19 29  1  0  0  0  0
 20 21  4  0  0  0  0
 20 25  4  0  0  0  0
 21 22  4  0  0  0  0
 21 30  1  0  0  0  0
 22 23  4  0  0  0  0
 22 27  1  0  0  0  0
 23 24  4  0  0  0  0
 23 26  1  0  0  0  0
 24 25  4  0  0  0  0
 24 31  1  0  0  0  0
 25 32  1  0  0  0  0
 26 33  1  0  0  0  0
 27 34  1  0  0  0  0
M  END
> <BCLConfClusterSize>
1

> <ConfClashScore>
0 

> <ConfOneFourInteractionScore>
-0.934209 

> <ConfScore>
0.0247469 

> <ConfScorePBest>
0.00407438 

> <ConfTolerance>
0.574763 

> <RosettaParamsInstructions>
M  ROOT 3
M  POLY_N_BB 3
M  POLY_CA_BB 4
M  POLY_C_BB 2
M  POLY_O_BB 5
M  POLY_IGNORE 9 10 11 12 13 14 15 16 17 18 
M  POLY_UPPER 6
M  POLY_LOWER 8
M  POLY_CHG 0
M  POLY_PROPERTIES ALPHA_AA L_AA PROTEIN AROMATIC POLYMER 
M  END

$$$$



 34 34  0  0  0  0  0  0  0  0999 V2000
    0.5541    3.4302    1.5850 H   0  0  0  1  0  0  0  0  0  0  0  0
    0.6834    1.3488    1.2428 C   0  0  0  1  0  0  0  0  0  0  0  0
    0.6294    3.1547   -0.4555 N   0  0  0  1  0  0  0  0  0  0  0  0
    0.1730    2.7392    0.8624 C   0  0  0  1  0  0  0  0  0  0  0  0
    0.4079    0.3616    0.5661 O   0  0  0  1  0  0  0  0  0  0  0  0
    1.4403    1.2881    2.3498 N   0  0  0  1  0  0  0  0  0  0  0  0
    0.2430    2.7251   -1.2470 H   0  0  0  1  0  0  0  0  0  0  0  0
    1.5661    4.1107   -0.6255 C   0  0  0  1  0  0  0  0  0  0  0  0
    2.0960    0.0604    2.7774 C   0  0  0  1  0  0  0  0  0  0  0  0
    1.9487    4.4898   -2.0430 C   0  0  0  1  0  0  0  0  0  0  0  0
    2.0947    4.6594    0.3377 O   0  0  0  1  0  0  0  0  0  0  0  0
    1.5556    2.0983    2.8889 H   0  0  0  1  0  0  0  0  0  0  0  0
    2.7219   -0.3034    1.9894 H   0  0  0  1  0  0  0  0  0  0  0  0
    1.3558   -0.6755    3.0132 H   0  0  0  1  0  0  0  0  0  0  0  0
    2.6921    0.2578    3.6437 H   0  0  0  1  0  0  0  0  0  0  0  0
    1.2869    4.0086   -2.7324 H   0  0  0  1  0  0  0  0  0  0  0  0
    2.9536    4.1774   -2.2365 H   0  0  0  1  0  0  0  0  0  0  0  0
    1.8757    5.5508   -2.1602 H   0  0  0  1  0  0  0  0  0  0  0  0
   -1.3457    2.7499    0.9783 C   0  0  0  1  0  0  0  0  0  0  0  0
   -1.9280    4.1380    0.9695 C   0  0  0  1  0  0  0  0  0  0  0  0
   -1.0938    5.2394    0.8569 C   0  0  0  1  0  0  0  0  0  0  0  0
   -1.6288    6.5138    0.8543 C   0  0  0  1  0  0  0  0  0  0  0  0
   -2.9997    6.6904    0.9589 C   0  0  0  1  0  0  0  0  0  0  0  0
   -3.8312    5.5922    1.0712 C   0  0  0  1  0  0  0  0  0  0  0  0
   -3.2949    4.3140    1.0738 C   0  0  0  1  0  0  0  0  0  0  0  0
   -3.5710    7.9194    0.9557 O   0  0  0  1  0  0  0  0  0  0  0  0
   -0.8540    7.6210    0.7517 O   0  0  0  1  0  0  0  0  0  0  0  0
   -1.6207    2.2710    1.8947 H   0  0  0  1  0  0  0  0  0  0  0  0
   -1.7540    2.2041    0.1535 H   0  0  0  1  0  0  0  0  0  0  0  0
   -0.0656    5.1068    0.7744 H   0  0  0  1  0  0  0  0  0  0  0  0
   -4.8594    5.7248    1.1537 H   0  0  0  1  0  0  0  0  0  0  0  0
   -3.9210    3.4875    1.1542 H   0  0  0  1  0  0  0  0  0  0  0  0
   -3.0816    8.4987    0.3671 H   0  0  0  1  0  0  0  0  0  0  0  0
   -0.0045    7.3837    0.3727 H   0  0  0  1  0  0  0  0  0  0  0  0
  1  4  1  0  0  0  0
  2  4  1  0  0  0  0
  2  5  2  0  0  0  0
  2  6  1  0  0  0  0
  3  4  1  0  0  0  0
  3  7  1  0  0  0  0
  3  8  1  0  0  0  0
  4 19  1  0  0  0  0
  6  9  1  0  0  0  0
  6 12  1  0  0  0  0
  8 10  1  0  0  0  0
  8 11  2  0  0  0  0
  9 13  1  0  0  0  0
  9 14  1  0  0  0  0
  9 15  1  0  0  0  0
 10 16  1  0  0  0  0
 10 17  1  0  0  0  0
 10 18  1  0  0  0  0
 19 20  1  0  0  0  0
 19 28  1  0  0  0  0
 19 29  1  0  0  0  0
 20 21  4  0  0  0  0
 20 25  4  0  0  0  0
 21 22  4  0  0  0  0
 21 30  1  0  0  0  0
 22 23  4  0  0  0  0
 22 27  1  0  0  0  0
 23 24  4  0  0  0  0
 23 26  1  0  0  0  0
 24 25  4  0  0  0  0
 24 31  1  0  0  0  0
 25 32  1  0  0  0  0
 26 33  1  0  0  0  0
 27 34  1  0  0  0  0
M  END
> <BCLConfClusterSize>
1

> <ConfClashScore>
0 

> <ConfOneFourInteractionScore>
-0.96681 

> <ConfScore>
0.0270964 

> <ConfScorePBest>
0.00404589 

> <ConfTolerance>
0.470604 

> <RosettaParamsInstructions>
M  ROOT 3
M  POLY_N_BB 3
M  POLY_CA_BB 4
M  POLY_C_BB 2
M  POLY_O_BB 5
M  POLY_IGNORE 9 10 11 12 13 14 15 16 17 18 
M  POLY_UPPER 6
M  POLY_LOWER 8
M  POLY_CHG 0
M  POLY_PROPERTIES ALPHA_AA L_AA PROTEIN AROMATIC POLYMER 
M  END

$$$$



 34 34  0  0  0  0  0  0  0  0999 V2000
   -0.5696    1.1932    2.2412 H   0  0  0  1  0  0  0  0  0  0  0  0
   -0.1468    3.0943    3.0544 C   0  0  0  1  0  0  0  0  0  0  0  0
   -2.2721    1.9082    3.1703 N   0  0  0  1  0  0  0  0  0  0  0  0
   -1.0829    2.1245    2.3598 C   0  0  0  1  0  0  0  0  0  0  0  0
   -0.5302    3.8115    3.9776 O   0  0  0  1  0  0  0  0  0  0  0  0
    1.0973    3.0819    2.5673 N   0  0  0  1  0  0  0  0  0  0  0  0
   -3.1238    2.2901    2.8717 H   0  0  0  1  0  0  0  0  0  0  0  0
   -2.2431    1.2071    4.3072 C   0  0  0  1  0  0  0  0  0  0  0  0
    2.1404    3.9595    3.0769 C   0  0  0  1  0  0  0  0  0  0  0  0
   -3.5857    0.9429    4.9504 C   0  0  0  1  0  0  0  0  0  0  0  0
   -1.2004    0.7945    4.8134 O   0  0  0  1  0  0  0  0  0  0  0  0
    1.3149    2.4603    1.8417 H   0  0  0  1  0  0  0  0  0  0  0  0
    2.2032    3.8596    4.1404 H   0  0  0  1  0  0  0  0  0  0  0  0
    1.9066    4.9734    2.8274 H   0  0  0  1  0  0  0  0  0  0  0  0
    3.0783    3.6907    2.6377 H   0  0  0  1  0  0  0  0  0  0  0  0
   -4.0271    1.8706    5.2495 H   0  0  0  1  0  0  0  0  0  0  0  0
   -3.4529    0.3182    5.8089 H   0  0  0  1  0  0  0  0  0  0  0  0
   -4.2272    0.4530    4.2480 H   0  0  0  1  0  0  0  0  0  0  0  0
   -1.4546    2.6384    0.9751 C   0  0  0  1  0  0  0  0  0  0  0  0
   -1.9395    4.0634    0.9855 C   0  0  0  1  0  0  0  0  0  0  0  0
   -1.0288    5.1065    0.9182 C   0  0  0  1  0  0  0  0  0  0  0  0
   -1.4745    6.4147    0.9333 C   0  0  0  1  0  0  0  0  0  0  0  0
   -2.8321    6.6838    1.0102 C   0  0  0  1  0  0  0  0  0  0  0  0
   -3.7398    5.6438    1.0773 C   0  0  0  1  0  0  0  0  0  0  0  0
   -3.2931    4.3316    1.0623 C   0  0  0  1  0  0  0  0  0  0  0  0
   -3.3605    7.9317    1.0255 O   0  0  0  1  0  0  0  0  0  0  0  0
   -0.6229    7.4674    0.8748 O   0  0  0  1  0  0  0  0  0  0  0  0
   -2.2305    2.0175    0.5784 H   0  0  0  1  0  0  0  0  0  0  0  0
   -0.5913    2.5770    0.3459 H   0  0  0  1  0  0  0  0  0  0  0  0
   -0.0105    4.9046    0.8564 H   0  0  0  1  0  0  0  0  0  0  0  0
   -4.7582    5.8456    1.1391 H   0  0  0  1  0  0  0  0  0  0  0  0
   -3.9765    3.5490    1.1087 H   0  0  0  1  0  0  0  0  0  0  0  0
   -3.1433    8.3817    0.2059 H   0  0  0  1  0  0  0  0  0  0  0  0
   -0.8448    8.0175    0.1199 H   0  0  0  1  0  0  0  0  0  0  0  0
  1  4  1  0  0  0  0
  2  4  1  0  0  0  0
  2  5  2  0  0  0  0
  2  6  1  0  0  0  0
  3  4  1  0  0  0  0
  3  7  1  0  0  0  0
  3  8  1  0  0  0  0
  4 19  1  0  0  0  0
  6  9  1  0  0  0  0
  6 12  1  0  0  0  0
  8 10  1  0  0  0  0
  8 11  2  0  0  0  0
  9 13  1  0  0  0  0
  9 14  1  0  0  0  0
  9 15  1  0  0  0  0
 10 16  1  0  0  0  0
 10 17  1  0  0  0  0
 10 18  1  0  0  0  0
 19 20  1  0  0  0  0
 19 28  1  0  0  0  0
 19 29  1  0  0  0  0
 20 21  4  0  0  0  0
 20 25  4  0  0  0  0
 21 22  4  0  0  0  0
 21 30  1  0  0  0  0
 22 23  4  0  0  0  0
 22 27  1  0  0  0  0
 23 24  4  0  0  0  0
 23 26  1  0  0  0  0
 24 25  4  0  0  0  0
 24 31  1  0  0  0  0
 25 32  1  0  0  0  0
 26 33  1  0  0  0  0
 27 34  1  0  0  0  0
M  END
> <BCLConfClusterSize>
1

> <ConfClashScore>
0 

> <ConfOneFourInteractionScore>
-0.982563 

> <ConfScore>
0.0289145 

> <ConfScorePBest>
0.00401741 

> <ConfTolerance>
0.388604 

> <RosettaParamsInstructions>
M  ROOT 3
M  POLY_N_BB 3
M  POLY_CA_BB 4
M  POLY_C_BB 2
M  POLY_O_BB 5
M  POLY_IGNORE 9 10 11 12 13 14 15 16 17 18 
M  POLY_UPPER 6
M  POLY_LOWER 8
M  POLY_CHG 0
M  POLY_PROPERTIES ALPHA_AA L_AA PROTEIN AROMATIC POLYMER 
M  END

$$$$



 34 34  0  0  0  0  0  0  0  0999 V2000
   -0.2567    1.3431   -0.1445 H   0  0  0  1  0  0  0  0  0  0  0  0
   -1.1632    2.7029   -1.4818 C   0  0  0  1  0  0  0  0  0  0  0  0
    0.7798    3.1308   -0.0738 N   0  0  0  1  0  0  0  0  0  0  0  0
   -0.4700    2.3914   -0.1686 C   0  0  0  1  0  0  0  0  0  0  0  0
   -1.7787    1.8304   -2.0930 O   0  0  0  1  0  0  0  0  0  0  0  0
   -1.0840    3.9630   -1.9574 N   0  0  0  1  0  0  0  0  0  0  0  0
    0.9416    3.6439    0.7454 H   0  0  0  1  0  0  0  0  0  0  0  0
    1.7216    3.1629   -1.0178 C   0  0  0  1  0  0  0  0  0  0  0  0
   -1.8004    4.3331   -3.1690 C   0  0  0  1  0  0  0  0  0  0  0  0
    3.0104    3.8800   -0.6221 C   0  0  0  1  0  0  0  0  0  0  0  0
    1.5648    2.7233   -2.1561 O   0  0  0  1  0  0  0  0  0  0  0  0
   -0.5430    4.6305   -1.4861 H   0  0  0  1  0  0  0  0  0  0  0  0
   -2.7135    3.7785   -3.2275 H   0  0  0  1  0  0  0  0  0  0  0  0
   -1.1942    4.1128   -4.0228 H   0  0  0  1  0  0  0  0  0  0  0  0
   -2.0200    5.3801   -3.1474 H   0  0  0  1  0  0  0  0  0  0  0  0
    3.0441    3.9931    0.4414 H   0  0  0  1  0  0  0  0  0  0  0  0
    3.0379    4.8447   -1.0842 H   0  0  0  1  0  0  0  0  0  0  0  0
    3.8523    3.3046   -0.9461 H   0  0  0  1  0  0  0  0  0  0  0  0
   -1.3879    2.7146    1.0144 C   0  0  0  1  0  0  0  0  0  0  0  0
   -1.9345    4.1165    0.9707 C   0  0  0  1  0  0  0  0  0  0  0  0
   -1.0820    5.1868    0.7491 C   0  0  0  1  0  0  0  0  0  0  0  0
   -1.5839    6.4742    0.7144 C   0  0  0  1  0  0  0  0  0  0  0  0
   -2.9403    6.6946    0.8960 C   0  0  0  1  0  0  0  0  0  0  0  0
   -3.7901    5.6273    1.1170 C   0  0  0  1  0  0  0  0  0  0  0  0
   -3.2871    4.3361    1.1518 C   0  0  0  1  0  0  0  0  0  0  0  0
   -3.4089    7.9655    0.8524 O   0  0  0  1  0  0  0  0  0  0  0  0
   -0.8276    7.5800    0.5094 O   0  0  0  1  0  0  0  0  0  0  0  0
   -0.8312    2.5942    1.9202 H   0  0  0  1  0  0  0  0  0  0  0  0
   -2.2090    2.0285    1.0059 H   0  0  0  1  0  0  0  0  0  0  0  0
   -0.0649    5.0212    0.6088 H   0  0  0  1  0  0  0  0  0  0  0  0
   -4.8072    5.7930    1.2572 H   0  0  0  1  0  0  0  0  0  0  0  0
   -3.9272    3.5328    1.3141 H   0  0  0  1  0  0  0  0  0  0  0  0
   -3.3034    8.3157   -0.0352 H   0  0  0  1  0  0  0  0  0  0  0  0
   -0.1342    7.6213    1.1720 H   0  0  0  1  0  0  0  0  0  0  0  0
  1  4  1  0  0  0  0
  2  4  1  0  0  0  0
  2  5  2  0  0  0  0
  2  6  1  0  0  0  0
  3  4  1  0  0  0  0
  3  7  1  0  0  0  0
  3  8  1  0  0  0  0
  4 19  1  0  0  0  0
  6  9  1  0  0  0  0
  6 12  1  0  0  0  0
  8 10  1  0  0  0  0
  8 11  2  0  0  0  0
  9 13  1  0  0  0  0
  9 14  1  0  0  0  0
  9 15  1  0  0  0  0
 10 16  1  0  0  0  0
 10 17  1  0  0  0  0
 10 18  1  0  0  0  0
 19 20  1  0  0  0  0
 19 28  1  0  0  0  0
 19 29  1  0  0  0  0
 20 21  4  0  0  0  0
 20 25  4  0  0  0  0
 21 22  4  0  0  0  0
 21 30  1  0  0  0  0
 22 23  4  0  0  0  0
 22 27  1  0  0  0  0
 23 24  4  0  0  0  0
 23 26  1  0  0  0  0
 24 25  4  0  0  0  0
 24 31  1  0  0  0  0
 25 32  1  0  0  0  0
 26 33  1  0  0  0  0
 27 34  1  0  0  0  0
M  END
> <BCLConfClusterSize>
1

> <ConfClashScore>
0 

> <ConfOneFourInteractionScore>
-0.957074 

> <ConfScore>
0.0291461 

> <ConfScorePBest>
0.00398893 

> <ConfTolerance>
0.708777 

> <RosettaParamsInstructions>
M  ROOT 3
M  POLY_N_BB 3
M  POLY_CA_BB 4
M  POLY_C_BB 2
M  POLY_O_BB 5
M  POLY_IGNORE 9 10 11 12 13 14 15 16 17 18 
M  POLY_UPPER 6
M  POLY_LOWER 8
M  POLY_CHG 0
M  POLY_PROPERTIES ALPHA_AA L_AA PROTEIN AROMATIC POLYMER 
M  END

$$$$



 34 34  0  0  0  0  0  0  0  0999 V2000
   -3.0162    1.5183    0.4604 H   0  0  0  1  0  0  0  0  0  0  0  0
   -1.9864    2.1648   -1.2562 C   0  0  0  1  0  0  0  0  0  0  0  0
   -1.3055    0.3922    0.2378 N   0  0  0  1  0  0  0  0  0  0  0  0
   -1.9957    1.6721    0.1778 C   0  0  0  1  0  0  0  0  0  0  0  0
   -0.9479    2.1919   -1.9153 O   0  0  0  1  0  0  0  0  0  0  0  0
   -3.1724    2.5616   -1.7442 N   0  0  0  1  0  0  0  0  0  0  0  0
   -0.4036    0.3232   -0.1391 H   0  0  0  1  0  0  0  0  0  0  0  0
   -1.8589   -0.6918    0.7889 C   0  0  0  1  0  0  0  0  0  0  0  0
   -3.3187    3.1025   -3.0873 C   0  0  0  1  0  0  0  0  0  0  0  0
   -0.9334   -1.8770    0.9837 C   0  0  0  1  0  0  0  0  0  0  0  0
   -3.0417   -0.7437    1.1233 O   0  0  0  1  0  0  0  0  0  0  0  0
   -3.9673    2.4844   -1.1762 H   0  0  0  1  0  0  0  0  0  0  0  0
   -2.7104    3.9769   -3.1884 H   0  0  0  1  0  0  0  0  0  0  0  0
   -4.3432    3.3594   -3.2584 H   0  0  0  1  0  0  0  0  0  0  0  0
   -3.0101    2.3690   -3.8025 H   0  0  0  1  0  0  0  0  0  0  0  0
    0.0441   -1.6295    0.6258 H   0  0  0  1  0  0  0  0  0  0  0  0
   -1.3104   -2.7170    0.4387 H   0  0  0  1  0  0  0  0  0  0  0  0
   -0.8807   -2.1208    2.0243 H   0  0  0  1  0  0  0  0  0  0  0  0
   -1.3920    2.6732    1.1672 C   0  0  0  1  0  0  0  0  0  0  0  0
   -1.9420    4.0652    1.0070 C   0  0  0  1  0  0  0  0  0  0  0  0
   -1.0699    5.1406    0.9400 C   0  0  0  1  0  0  0  0  0  0  0  0
   -1.5654    6.4298    0.8871 C   0  0  0  1  0  0  0  0  0  0  0  0
   -2.9344    6.6472    0.8956 C   0  0  0  1  0  0  0  0  0  0  0  0
   -3.8038    5.5749    0.9624 C   0  0  0  1  0  0  0  0  0  0  0  0
   -3.3071    4.2818    1.0155 C   0  0  0  1  0  0  0  0  0  0  0  0
   -3.3472    7.9366    0.8360 O   0  0  0  1  0  0  0  0  0  0  0  0
   -0.7529    7.5127    0.8259 O   0  0  0  1  0  0  0  0  0  0  0  0
   -0.3333    2.7058    1.0154 H   0  0  0  1  0  0  0  0  0  0  0  0
   -1.6001    2.3370    2.1614 H   0  0  0  1  0  0  0  0  0  0  0  0
   -0.0428    4.9774    0.9296 H   0  0  0  1  0  0  0  0  0  0  0  0
   -4.8308    5.7381    0.9728 H   0  0  0  1  0  0  0  0  0  0  0  0
   -3.9614    3.4748    1.0618 H   0  0  0  1  0  0  0  0  0  0  0  0
   -2.5841    8.5143    0.7619 H   0  0  0  1  0  0  0  0  0  0  0  0
   -0.9454    8.0131    0.0296 H   0  0  0  1  0  0  0  0  0  0  0  0
  1  4  1  0  0  0  0
  2  4  1  0  0  0  0
  2  5  2  0  0  0  0
  2  6  1  0  0  0  0
  3  4  1  0  0  0  0
  3  7  1  0  0  0  0
  3  8  1  0  0  0  0
  4 19  1  0  0  0  0
  6  9  1  0  0  0  0
  6 12  1  0  0  0  0
  8 10  1  0  0  0  0
  8 11  2  0  0  0  0
  9 13  1  0  0  0  0
  9 14  1  0  0  0  0
  9 15  1  0  0  0  0
 10 16  1  0  0  0  0
 10 17  1  0  0  0  0
 10 18  1  0  0  0  0
 19 20  1  0  0  0  0
 19 28  1  0  0  0  0
 19 29  1  0  0  0  0
 20 21  4  0  0  0  0
 20 25  4  0  0  0  0
 21 22  4  0  0  0  0
 21 30  1  0  0  0  0
 22 23  4  0  0  0  0
 22 27  1  0  0  0  0
 23 24  4  0  0  0  0
 23 26  1  0  0  0  0
 24 25  4  0  0  0  0
 24 31  1  0  0  0  0
 25 32  1  0  0  0  0
 26 33  1  0  0  0  0
 27 34  1  0  0  0  0
M  END
> <BCLConfClusterSize>
1

> <ConfClashScore>
0 

> <ConfOneFourInteractionScore>
-0.990503 

> <ConfScore>
0.0300905 

> <ConfScorePBest>
0.00396045 

> <ConfTolerance>
0.460157 

> <RosettaParamsInstructions>
M  ROOT 3
M  POLY_N_BB 3
M  POLY_CA_BB 4
M  POLY_C_BB 2
M  POLY_O_BB 5
M  POLY_IGNORE 9 10 11 12 13 14 15 16 17 18 
M  POLY_UPPER 6
M  POLY_LOWER 8
M  POLY_CHG 0
M  POLY_PROPERTIES ALPHA_AA L_AA PROTEIN AROMATIC POLYMER 
M  END

$$$$



 34 34  0  0  0  0  0  0  0  0999 V2000
   -3.2437    1.7149    0.3924 H   0  0  0  1  0  0  0  0  0  0  0  0
   -1.9324    0.1932    1.0874 C   0  0  0  1  0  0  0  0  0  0  0  0
   -3.2204    1.7588    2.4681 N   0  0  0  1  0  0  0  0  0  0  0  0
   -2.5437    1.5862    1.1913 C   0  0  0  1  0  0  0  0  0  0  0  0
   -1.4208   -0.3448    2.0657 O   0  0  0  1  0  0  0  0  0  0  0  0
   -1.9708   -0.4287   -0.1094 N   0  0  0  1  0  0  0  0  0  0  0  0
   -2.6805    1.8566    3.2801 H   0  0  0  1  0  0  0  0  0  0  0  0
   -4.5520    1.7886    2.5718 C   0  0  0  1  0  0  0  0  0  0  0  0
   -1.4153   -1.7657   -0.2563 C   0  0  0  1  0  0  0  0  0  0  0  0
   -5.1048    1.8185    3.9910 C   0  0  0  1  0  0  0  0  0  0  0  0
   -5.3001    1.7921    1.5950 O   0  0  0  1  0  0  0  0  0  0  0  0
   -2.3737    0.0210   -0.8813 H   0  0  0  1  0  0  0  0  0  0  0  0
   -0.3920   -1.6958   -0.5609 H   0  0  0  1  0  0  0  0  0  0  0  0
   -1.9713   -2.3034   -0.9956 H   0  0  0  1  0  0  0  0  0  0  0  0
   -1.4741   -2.2809    0.6796 H   0  0  0  1  0  0  0  0  0  0  0  0
   -4.7847    0.9438    4.5175 H   0  0  0  1  0  0  0  0  0  0  0  0
   -6.1740    1.8425    3.9566 H   0  0  0  1  0  0  0  0  0  0  0  0
   -4.7441    2.6903    4.4956 H   0  0  0  1  0  0  0  0  0  0  0  0
   -1.4326    2.6285    1.0419 C   0  0  0  1  0  0  0  0  0  0  0  0
   -1.9543    4.0494    0.9968 C   0  0  0  1  0  0  0  0  0  0  0  0
   -1.0365    5.0698    0.8017 C   0  0  0  1  0  0  0  0  0  0  0  0
   -1.4631    6.3838    0.7584 C   0  0  0  1  0  0  0  0  0  0  0  0
   -2.8091    6.6808    0.9048 C   0  0  0  1  0  0  0  0  0  0  0  0
   -3.7240    5.6634    1.0994 C   0  0  0  1  0  0  0  0  0  0  0  0
   -3.2964    4.3455    1.1428 C   0  0  0  1  0  0  0  0  0  0  0  0
   -3.1543    7.9901    0.8462 O   0  0  0  1  0  0  0  0  0  0  0  0
   -0.6035    7.4154    0.5752 O   0  0  0  1  0  0  0  0  0  0  0  0
   -0.9011    2.4319    0.1343 H   0  0  0  1  0  0  0  0  0  0  0  0
   -0.7655    2.5368    1.8734 H   0  0  0  1  0  0  0  0  0  0  0  0
   -0.0271    4.8467    0.6878 H   0  0  0  1  0  0  0  0  0  0  0  0
   -4.7334    5.8865    1.2132 H   0  0  0  1  0  0  0  0  0  0  0  0
   -3.9855    3.5796    1.2852 H   0  0  0  1  0  0  0  0  0  0  0  0
   -3.3107    8.2397   -0.0675 H   0  0  0  1  0  0  0  0  0  0  0  0
   -0.9487    8.2006    1.0065 H   0  0  0  1  0  0  0  0  0  0  0  0
  1  4  1  0  0  0  0
  2  4  1  0  0  0  0
  2  5  2  0  0  0  0
  2  6  1  0  0  0  0
  3  4  1  0  0  0  0
  3  7  1  0  0  0  0
  3  8  1  0  0  0  0
  4 19  1  0  0  0  0
  6  9  1  0  0  0  0
  6 12  1  0  0  0  0
  8 10  1  0  0  0  0
  8 11  2  0  0  0  0
  9 13  1  0  0  0  0
  9 14  1  0  0  0  0
  9 15  1  0  0  0  0
 10 16  1  0  0  0  0
 10 17  1  0  0  0  0
 10 18  1  0  0  0  0
 19 20  1  0  0  0  0
 19 28  1  0  0  0  0
 19 29  1  0  0  0  0
 20 21  4  0  0  0  0
 20 25  4  0  0  0  0
 21 22  4  0  0  0  0
 21 30  1  0  0  0  0
 22 23  4  0  0  0  0
 22 27  1  0  0  0  0
 23 24  4  0  0  0  0
 23 26  1  0  0  0  0
 24 25  4  0  0  0  0
 24 31  1  0  0  0  0
 25 32  1  0  0  0  0
 26 33  1  0  0  0  0
 27 34  1  0  0  0  0
M  END
> <BCLConfClusterSize>
1

> <ConfClashScore>
0 

> <ConfOneFourInteractionScore>
-0.97449 

> <ConfScore>
0.0314326 

> <ConfScorePBest>
0.00393197 

> <ConfTolerance>
0.553978 

> <RosettaParamsInstructions>
M  ROOT 3
M  POLY_N_BB 3
M  POLY_CA_BB 4
M  POLY_C_BB 2
M  POLY_O_BB 5
M  POLY_IGNORE 9 10 11 12 13 14 15 16 17 18 
M  POLY_UPPER 6
M  POLY_LOWER 8
M  POLY_CHG 0
M  POLY_PROPERTIES ALPHA_AA L_AA PROTEIN AROMATIC POLYMER 
M  END

$$$$



 34 34  0  0  0  0  0  0  0  0999 V2000
   -1.1557    1.0453    2.4237 H   0  0  0  1  0  0  0  0  0  0  0  0
   -1.1904    2.8479    3.5361 C   0  0  0  1  0  0  0  0  0  0  0  0
   -3.1209    1.6745    2.5954 N   0  0  0  1  0  0  0  0  0  0  0  0
   -1.7042    1.9638    2.4037 C   0  0  0  1  0  0  0  0  0  0  0  0
   -0.0494    2.7109    3.9755 O   0  0  0  1  0  0  0  0  0  0  0  0
   -2.0236    3.7820    4.0395 N   0  0  0  1  0  0  0  0  0  0  0  0
   -3.7639    1.9986    1.9307 H   0  0  0  1  0  0  0  0  0  0  0  0
   -3.5723    0.9831    3.6457 C   0  0  0  1  0  0  0  0  0  0  0  0
   -1.5947    4.6233    5.1468 C   0  0  0  1  0  0  0  0  0  0  0  0
   -5.0787    0.7621    3.6945 C   0  0  0  1  0  0  0  0  0  0  0  0
   -2.8339    0.5451    4.5269 O   0  0  0  1  0  0  0  0  0  0  0  0
   -2.9196    3.8943    3.6586 H   0  0  0  1  0  0  0  0  0  0  0  0
   -0.5308    4.7340    5.1200 H   0  0  0  1  0  0  0  0  0  0  0  0
   -1.8825    4.1690    6.0718 H   0  0  0  1  0  0  0  0  0  0  0  0
   -2.0554    5.5853    5.0628 H   0  0  0  1  0  0  0  0  0  0  0  0
   -5.4596    1.1037    4.6344 H   0  0  0  1  0  0  0  0  0  0  0  0
   -5.2898   -0.2808    3.5822 H   0  0  0  1  0  0  0  0  0  0  0  0
   -5.5450    1.3083    2.9013 H   0  0  0  1  0  0  0  0  0  0  0  0
   -1.4612    2.6318    1.0468 C   0  0  0  1  0  0  0  0  0  0  0  0
   -1.9448    4.0564    0.9958 C   0  0  0  1  0  0  0  0  0  0  0  0
   -1.0398    5.0900    0.8107 C   0  0  0  1  0  0  0  0  0  0  0  0
   -1.4840    6.3981    0.7694 C   0  0  0  1  0  0  0  0  0  0  0  0
   -2.8350    6.6762    0.9076 C   0  0  0  1  0  0  0  0  0  0  0  0
   -3.7371    5.6456    1.0921 C   0  0  0  1  0  0  0  0  0  0  0  0
   -3.2919    4.3335    1.1336 C   0  0  0  1  0  0  0  0  0  0  0  0
   -3.2464    7.9665    0.8582 O   0  0  0  1  0  0  0  0  0  0  0  0
   -0.5793    7.3916    0.5926 O   0  0  0  1  0  0  0  0  0  0  0  0
   -1.9745    2.0707    0.2941 H   0  0  0  1  0  0  0  0  0  0  0  0
   -0.4103    2.6215    0.8454 H   0  0  0  1  0  0  0  0  0  0  0  0
   -0.0267    4.8811    0.7030 H   0  0  0  1  0  0  0  0  0  0  0  0
   -4.7502    5.8545    1.1998 H   0  0  0  1  0  0  0  0  0  0  0  0
   -3.9713    3.5578    1.2684 H   0  0  0  1  0  0  0  0  0  0  0  0
   -3.1861    8.2878   -0.0444 H   0  0  0  1  0  0  0  0  0  0  0  0
   -0.9252    8.2088    0.9588 H   0  0  0  1  0  0  0  0  0  0  0  0
  1  4  1  0  0  0  0
  2  4  1  0  0  0  0
  2  5  2  0  0  0  0
  2  6  1  0  0  0  0
  3  4  1  0  0  0  0
  3  7  1  0  0  0  0
  3  8  1  0  0  0  0
  4 19  1  0  0  0  0
  6  9  1  0  0  0  0
  6 12  1  0  0  0  0
  8 10  1  0  0  0  0
  8 11  2  0  0  0  0
  9 13  1  0  0  0  0
  9 14  1  0  0  0  0
  9 15  1  0  0  0  0
 10 16  1  0  0  0  0
 10 17  1  0  0  0  0
 10 18  1  0  0  0  0
 19 20  1  0  0  0  0
 19 28  1  0  0  0  0
 19 29  1  0  0  0  0
 20 21  4  0  0  0  0
 20 25  4  0  0  0  0
 21 22  4  0  0  0  0
 21 30  1  0  0  0  0
 22 23  4  0  0  0  0
 22 27  1  0  0  0  0
 23 24  4  0  0  0  0
 23 26  1  0  0  0  0
 24 25  4  0  0  0  0
 24 31  1  0  0  0  0
 25 32  1  0  0  0  0
 26 33  1  0  0  0  0
 27 34  1  0  0  0  0
M  END
> <BCLConfClusterSize>
1

> <ConfClashScore>
0 

> <ConfOneFourInteractionScore>
-0.957074 

> <ConfScore>
0.034838 

> <ConfScorePBest>
0.00390349 

> <ConfTolerance>
0.426734 

> <RosettaParamsInstructions>
M  ROOT 3
M  POLY_N_BB 3
M  POLY_CA_BB 4
M  POLY_C_BB 2
M  POLY_O_BB 5
M  POLY_IGNORE 9 10 11 12 13 14 15 16 17 18 
M  POLY_UPPER 6
M  POLY_LOWER 8
M  POLY_CHG 0
M  POLY_PROPERTIES ALPHA_AA L_AA PROTEIN AROMATIC POLYMER 
M  END

$$$$



 34 34  0  0  0  0  0  0  0  0999 V2000
   -2.9247    1.7580    0.2527 H   0  0  0  1  0  0  0  0  0  0  0  0
   -1.7782    2.5709   -1.3092 C   0  0  0  1  0  0  0  0  0  0  0  0
   -1.2795    0.5446    0.0813 N   0  0  0  1  0  0  0  0  0  0  0  0
   -1.8819    1.8687    0.0402 C   0  0  0  1  0  0  0  0  0  0  0  0
   -0.6997    2.9849   -1.7323 O   0  0  0  1  0  0  0  0  0  0  0  0
   -2.9232    2.7009   -1.9853 N   0  0  0  1  0  0  0  0  0  0  0  0
   -0.6257    0.3441    0.7832 H   0  0  0  1  0  0  0  0  0  0  0  0
   -1.5869   -0.4072   -0.8045 C   0  0  0  1  0  0  0  0  0  0  0  0
   -3.1475    3.4621   -3.2052 C   0  0  0  1  0  0  0  0  0  0  0  0
   -0.8833   -1.7367   -0.6137 C   0  0  0  1  0  0  0  0  0  0  0  0
   -2.3858   -0.2346   -1.7212 O   0  0  0  1  0  0  0  0  0  0  0  0
   -3.7003    2.2301   -1.6181 H   0  0  0  1  0  0  0  0  0  0  0  0
   -2.6521    4.4077   -3.1323 H   0  0  0  1  0  0  0  0  0  0  0  0
   -4.1973    3.6191   -3.3394 H   0  0  0  1  0  0  0  0  0  0  0  0
   -2.7579    2.9191   -4.0409 H   0  0  0  1  0  0  0  0  0  0  0  0
   -0.9105   -2.2898   -1.5292 H   0  0  0  1  0  0  0  0  0  0  0  0
   -1.3772   -2.2943    0.1544 H   0  0  0  1  0  0  0  0  0  0  0  0
    0.1344   -1.5641   -0.3316 H   0  0  0  1  0  0  0  0  0  0  0  0
   -1.3043    2.7820    1.1259 C   0  0  0  1  0  0  0  0  0  0  0  0
   -1.9289    4.1618    1.0560 C   0  0  0  1  0  0  0  0  0  0  0  0
   -1.0920    5.2534    0.8837 C   0  0  0  1  0  0  0  0  0  0  0  0
   -1.6285    6.5181    0.7322 C   0  0  0  1  0  0  0  0  0  0  0  0
   -3.0034    6.6943    0.7471 C   0  0  0  1  0  0  0  0  0  0  0  0
   -3.8376    5.6059    0.9189 C   0  0  0  1  0  0  0  0  0  0  0  0
   -3.2998    4.3374    1.0709 C   0  0  0  1  0  0  0  0  0  0  0  0
   -3.4573    7.9613    0.5875 O   0  0  0  1  0  0  0  0  0  0  0  0
   -0.7896    7.5702    0.5705 O   0  0  0  1  0  0  0  0  0  0  0  0
   -0.2470    2.8681    0.9859 H   0  0  0  1  0  0  0  0  0  0  0  0
   -1.5038    2.3548    2.0864 H   0  0  0  1  0  0  0  0  0  0  0  0
   -0.0607    5.1207    0.8685 H   0  0  0  1  0  0  0  0  0  0  0  0
   -4.8690    5.7386    0.9341 H   0  0  0  1  0  0  0  0  0  0  0  0
   -3.9277    3.5178    1.1962 H   0  0  0  1  0  0  0  0  0  0  0  0
   -3.3221    8.4549    1.3997 H   0  0  0  1  0  0  0  0  0  0  0  0
    0.0417    7.2634    0.2012 H   0  0  0  1  0  0  0  0  0  0  0  0
  1  4  1  0  0  0  0
  2  4  1  0  0  0  0
  2  5  2  0  0  0  0
  2  6  1  0  0  0  0
  3  4  1  0  0  0  0
  3  7  1  0  0  0  0
  3  8  1  0  0  0  0
  4 19  1  0  0  0  0
  6  9  1  0  0  0  0
  6 12  1  0  0  0  0
  8 10  1  0  0  0  0
  8 11  2  0  0  0  0
  9 13  1  0  0  0  0
  9 14  1  0  0  0  0
  9 15  1  0  0  0  0
 10 16  1  0  0  0  0
 10 17  1  0  0  0  0
 10 18  1  0  0  0  0
 19 20  1  0  0  0  0
 19 28  1  0  0  0  0
 19 29  1  0  0  0  0
 20 21  4  0  0  0  0
 20 25  4  0  0  0  0
 21 22  4  0  0  0  0
 21 30  1  0  0  0  0
 22 23  4  0  0  0  0
 22 27  1  0  0  0  0
 23 24  4  0  0  0  0
 23 26  1  0  0  0  0
 24 25  4  0  0  0  0
 24 31  1  0  0  0  0
 25 32  1  0  0  0  0
 26 33  1  0  0  0  0
 27 34  1  0  0  0  0
M  END
> <BCLConfClusterSize>
1

> <ConfClashScore>
0 

> <ConfOneFourInteractionScore>
-0.979134 

> <ConfScore>
0.0376915 

> <ConfScorePBest>
0.00387501 

> <ConfTolerance>
0.537844 

> <RosettaParamsInstructions>
M  ROOT 3
M  POLY_N_BB 3
M  POLY_CA_BB 4
M  POLY_C_BB 2
M  POLY_O_BB 5
M  POLY_IGNORE 9 10 11 12 13 14 15 16 17 18 
M  POLY_UPPER 6
M  POLY_LOWER 8
M  POLY_CHG 0
M  POLY_PROPERTIES ALPHA_AA L_AA PROTEIN AROMATIC POLYMER 
M  END

$$$$



 34 34  0  0  0  0  0  0  0  0999 V2000
   -2.0549    2.2053    2.9673 H   0  0  0  1  0  0  0  0  0  0  0  0
   -0.6499    0.7572    2.3387 C   0  0  0  1  0  0  0  0  0  0  0  0
   -0.1856    3.0501    3.1606 N   0  0  0  1  0  0  0  0  0  0  0  0
   -1.1257    2.2073    2.4369 C   0  0  0  1  0  0  0  0  0  0  0  0
    0.5492    0.4894    2.2760 O   0  0  0  1  0  0  0  0  0  0  0  0
   -1.5743   -0.2074    2.3232 N   0  0  0  1  0  0  0  0  0  0  0  0
    0.7474    2.7602    3.2373 H   0  0  0  1  0  0  0  0  0  0  0  0
   -0.5503    4.2053    3.7242 C   0  0  0  1  0  0  0  0  0  0  0  0
   -1.2276   -1.6141    2.1864 C   0  0  0  1  0  0  0  0  0  0  0  0
    0.5101    4.8934    4.5616 C   0  0  0  1  0  0  0  0  0  0  0  0
   -1.6683    4.6940    3.5842 O   0  0  0  1  0  0  0  0  0  0  0  0
   -2.5185    0.0411    2.4068 H   0  0  0  1  0  0  0  0  0  0  0  0
   -1.8176   -2.0535    1.4094 H   0  0  0  1  0  0  0  0  0  0  0  0
   -1.4199   -2.1200    3.1094 H   0  0  0  1  0  0  0  0  0  0  0  0
   -0.1902   -1.7032    1.9397 H   0  0  0  1  0  0  0  0  0  0  0  0
    1.4584    4.8147    4.0723 H   0  0  0  1  0  0  0  0  0  0  0  0
    0.5648    4.4253    5.5223 H   0  0  0  1  0  0  0  0  0  0  0  0
    0.2553    5.9257    4.6813 H   0  0  0  1  0  0  0  0  0  0  0  0
   -1.4038    2.7255    1.0320 C   0  0  0  1  0  0  0  0  0  0  0  0
   -1.9311    4.1470    1.0169 C   0  0  0  1  0  0  0  0  0  0  0  0
   -1.0422    5.1741    0.7404 C   0  0  0  1  0  0  0  0  0  0  0  0
   -1.4996    6.4741    0.6356 C   0  0  0  1  0  0  0  0  0  0  0  0
   -2.8477    6.7503    0.8017 C   0  0  0  1  0  0  0  0  0  0  0  0
   -3.7339    5.7261    1.0774 C   0  0  0  1  0  0  0  0  0  0  0  0
   -3.2754    4.4222    1.1826 C   0  0  0  1  0  0  0  0  0  0  0  0
   -3.2725    8.0323    0.6889 O   0  0  0  1  0  0  0  0  0  0  0  0
   -0.6103    7.4617    0.3698 O   0  0  0  1  0  0  0  0  0  0  0  0
   -2.1295    2.0882    0.5714 H   0  0  0  1  0  0  0  0  0  0  0  0
   -0.4933    2.6941    0.4709 H   0  0  0  1  0  0  0  0  0  0  0  0
   -0.0313    4.9665    0.6118 H   0  0  0  1  0  0  0  0  0  0  0  0
   -4.7448    5.9338    1.2060 H   0  0  0  1  0  0  0  0  0  0  0  0
   -3.9429    3.6510    1.3861 H   0  0  0  1  0  0  0  0  0  0  0  0
   -4.2126    8.0425    0.4949 H   0  0  0  1  0  0  0  0  0  0  0  0
    0.0687    7.4726    1.0483 H   0  0  0  1  0  0  0  0  0  0  0  0
  1  4  1  0  0  0  0
  2  4  1  0  0  0  0
  2  5  2  0  0  0  0
  2  6  1  0  0  0  0
  3  4  1  0  0  0  0
  3  7  1  0  0  0  0
  3  8  1  0  0  0  0
  4 19  1  0  0  0  0
  6  9  1  0  0  0  0
  6 12  1  0  0  0  0
  8 10  1  0  0  0  0
  8 11  2  0  0  0  0
  9 13  1  0  0  0  0
  9 14  1  0  0  0  0
  9 15  1  0  0  0  0
 10 16  1  0  0  0  0
 10 17  1  0  0  0  0
 10 18  1  0  0  0  0
 19 20  1  0  0  0  0
 19 28  1  0  0  0  0
 19 29  1  0  0  0  0
 20 21  4  0  0  0  0
 20 25  4  0  0  0  0
 21 22  4  0  0  0  0
 21 30  1  0  0  0  0
 22 23  4  0  0  0  0
 22 27  1  0  0  0  0
 23 24  4  0  0  0  0
 23 26  1  0  0  0  0
 24 25  4  0  0  0  0
 24 31  1  0  0  0  0
 25 32  1  0  0  0  0
 26 33  1  0  0  0  0
 27 34  1  0  0  0  0
M  END
> <BCLConfClusterSize>
1

> <ConfClashScore>
0 

> <ConfOneFourInteractionScore>
-0.990503 

> <ConfScore>
0.0383211 

> <ConfScorePBest>
0.00384653 

> <ConfTolerance>
0.566521 

> <RosettaParamsInstructions>
M  ROOT 3
M  POLY_N_BB 3
M  POLY_CA_BB 4
M  POLY_C_BB 2
M  POLY_O_BB 5
M  POLY_IGNORE 9 10 11 12 13 14 15 16 17 18 
M  POLY_UPPER 6
M  POLY_LOWER 8
M  POLY_CHG 0
M  POLY_PROPERTIES ALPHA_AA L_AA PROTEIN AROMATIC POLYMER 
M  END

$$$$



 34 34  0  0  0  0  0  0  0  0999 V2000
    0.4671    3.1090    0.5629 H   0  0  0  1  0  0  0  0  0  0  0  0
    0.3218    1.0003    0.5494 C   0  0  0  1  0  0  0  0  0  0  0  0
   -0.6843    2.5556   -1.0627 N   0  0  0  1  0  0  0  0  0  0  0  0
   -0.2776    2.3790    0.3234 C   0  0  0  1  0  0  0  0  0  0  0  0
   -0.3694   -0.0125    0.4487 O   0  0  0  1  0  0  0  0  0  0  0  0
    1.6189    0.9225    0.8601 N   0  0  0  1  0  0  0  0  0  0  0  0
   -1.2321    1.8625   -1.4869 H   0  0  0  1  0  0  0  0  0  0  0  0
   -0.3369    3.6299   -1.7771 C   0  0  0  1  0  0  0  0  0  0  0  0
    2.2963   -0.3505    1.0564 C   0  0  0  1  0  0  0  0  0  0  0  0
   -0.9428    3.7630   -3.1746 C   0  0  0  1  0  0  0  0  0  0  0  0
    0.4964    4.4439   -1.3814 O   0  0  0  1  0  0  0  0  0  0  0  0
    2.1320    1.7515    0.9591 H   0  0  0  1  0  0  0  0  0  0  0  0
    2.3447   -0.5718    2.1021 H   0  0  0  1  0  0  0  0  0  0  0  0
    3.2877   -0.2918    0.6582 H   0  0  0  1  0  0  0  0  0  0  0  0
    1.7545   -1.1239    0.5532 H   0  0  0  1  0  0  0  0  0  0  0  0
   -0.5193    3.0217   -3.8196 H   0  0  0  1  0  0  0  0  0  0  0  0
   -0.7309    4.7370   -3.5636 H   0  0  0  1  0  0  0  0  0  0  0  0
   -2.0022    3.6234   -3.1185 H   0  0  0  1  0  0  0  0  0  0  0  0
   -1.4950    2.6315    1.2260 C   0  0  0  1  0  0  0  0  0  0  0  0
   -1.9387    4.0691    1.0483 C   0  0  0  1  0  0  0  0  0  0  0  0
   -1.0010    5.0583    0.7958 C   0  0  0  1  0  0  0  0  0  0  0  0
   -1.4061    6.3705    0.6391 C   0  0  0  1  0  0  0  0  0  0  0  0
   -2.7503    6.6965    0.7291 C   0  0  0  1  0  0  0  0  0  0  0  0
   -3.6851    5.7101    0.9809 C   0  0  0  1  0  0  0  0  0  0  0  0
   -3.2791    4.3941    1.1381 C   0  0  0  1  0  0  0  0  0  0  0  0
   -3.0737    8.0016    0.5595 O   0  0  0  1  0  0  0  0  0  0  0  0
   -0.4700    7.3204    0.3981 O   0  0  0  1  0  0  0  0  0  0  0  0
   -1.2275    2.4606    2.2479 H   0  0  0  1  0  0  0  0  0  0  0  0
   -2.2911    1.9719    0.9501 H   0  0  0  1  0  0  0  0  0  0  0  0
    0.0071    4.8132    0.7242 H   0  0  0  1  0  0  0  0  0  0  0  0
   -4.6933    5.9553    1.0525 H   0  0  0  1  0  0  0  0  0  0  0  0
   -3.9830    3.6513    1.3236 H   0  0  0  1  0  0  0  0  0  0  0  0
   -3.9630    8.1565    0.8864 H   0  0  0  1  0  0  0  0  0  0  0  0
   -0.7480    8.1511    0.7908 H   0  0  0  1  0  0  0  0  0  0  0  0
  1  4  1  0  0  0  0
  2  4  1  0  0  0  0
  2  5  2  0  0  0  0
  2  6  1  0  0  0  0
  3  4  1  0  0  0  0
  3  7  1  0  0  0  0
  3  8  1  0  0  0  0
  4 19  1  0  0  0  0
  6  9  1  0  0  0  0
  6 12  1  0  0  0  0
  8 10  1  0  0  0  0
  8 11  2  0  0  0  0
  9 13  1  0  0  0  0
  9 14  1  0  0  0  0
  9 15  1  0  0  0  0
 10 16  1  0  0  0  0
 10 17  1  0  0  0  0
 10 18  1  0  0  0  0
 19 20  1  0  0  0  0
 19 28  1  0  0  0  0
 19 29  1  0  0  0  0
 20 21  4  0  0  0  0
 20 25  4  0  0  0  0
 21 22  4  0  0  0  0
 21 30  1  0  0  0  0
 22 23  4  0  0  0  0
 22 27  1  0  0  0  0
 23 24  4  0  0  0  0
 23 26  1  0  0  0  0
 24 25  4  0  0  0  0
 24 31  1  0  0  0  0
 25 32  1  0  0  0  0
 26 33  1  0  0  0  0
 27 34  1  0  0  0  0
M  END
> <BCLConfClusterSize>
1

> <ConfClashScore>
0 

> <ConfOneFourInteractionScore>
-0.976389 

> <ConfScore>
0.0392334 

> <ConfScorePBest>
0.00381805 

> <ConfTolerance>
0.710729 

> <RosettaParamsInstructions>
M  ROOT 3
M  POLY_N_BB 3
M  POLY_CA_BB 4
M  POLY_C_BB 2
M  POLY_O_BB 5
M  POLY_IGNORE 9 10 11 12 13 14 15 16 17 18 
M  POLY_UPPER 6
M  POLY_LOWER 8
M  POLY_CHG 0
M  POLY_PROPERTIES ALPHA_AA L_AA PROTEIN AROMATIC POLYMER 
M  END

$$$$



 34 34  0  0  0  0  0  0  0  0999 V2000
   -2.1079    2.4434    3.2255 H   0  0  0  1  0  0  0  0  0  0  0  0
   -0.4533    1.1398    2.9419 C   0  0  0  1  0  0  0  0  0  0  0  0
   -0.3587    3.5507    3.3836 N   0  0  0  1  0  0  0  0  0  0  0  0
   -1.1415    2.4893    2.7684 C   0  0  0  1  0  0  0  0  0  0  0  0
   -0.7903    0.1687    2.2674 O   0  0  0  1  0  0  0  0  0  0  0  0
    0.5228    1.0455    3.8453 N   0  0  0  1  0  0  0  0  0  0  0  0
   -0.7733    4.1440    4.0442 H   0  0  0  1  0  0  0  0  0  0  0  0
    0.9367    3.7196    3.0463 C   0  0  0  1  0  0  0  0  0  0  0  0
    1.2387   -0.1851    4.1504 C   0  0  0  1  0  0  0  0  0  0  0  0
    1.6407    4.8916    3.7021 C   0  0  0  1  0  0  0  0  0  0  0  0
    1.5248    2.9815    2.2603 O   0  0  0  1  0  0  0  0  0  0  0  0
    0.7745    1.8561    4.3351 H   0  0  0  1  0  0  0  0  0  0  0  0
    1.1476   -0.8644    3.3287 H   0  0  0  1  0  0  0  0  0  0  0  0
    0.8224   -0.6311    5.0294 H   0  0  0  1  0  0  0  0  0  0  0  0
    2.2723    0.0358    4.3172 H   0  0  0  1  0  0  0  0  0  0  0  0
    2.0017    5.5590    2.9477 H   0  0  0  1  0  0  0  0  0  0  0  0
    2.4638    4.5326    4.2840 H   0  0  0  1  0  0  0  0  0  0  0  0
    0.9534    5.4101    4.3374 H   0  0  0  1  0  0  0  0  0  0  0  0
   -1.3186    2.7674    1.2756 C   0  0  0  1  0  0  0  0  0  0  0  0
   -1.9357    4.1225    1.0547 C   0  0  0  1  0  0  0  0  0  0  0  0
   -1.0867    5.1828    0.7780 C   0  0  0  1  0  0  0  0  0  0  0  0
   -1.6050    6.4476    0.5729 C   0  0  0  1  0  0  0  0  0  0  0  0
   -2.9740    6.6548    0.6384 C   0  0  0  1  0  0  0  0  0  0  0  0
   -3.8204    5.5975    0.9143 C   0  0  0  1  0  0  0  0  0  0  0  0
   -3.3008    4.3290    1.1200 C   0  0  0  1  0  0  0  0  0  0  0  0
   -3.4103    7.9194    0.4214 O   0  0  0  1  0  0  0  0  0  0  0  0
   -0.8153    7.5159    0.3048 O   0  0  0  1  0  0  0  0  0  0  0  0
   -1.9553    2.0188    0.8523 H   0  0  0  1  0  0  0  0  0  0  0  0
   -0.3622    2.7352    0.7968 H   0  0  0  1  0  0  0  0  0  0  0  0
   -0.0599    5.0267    0.7249 H   0  0  0  1  0  0  0  0  0  0  0  0
   -4.8472    5.7537    0.9674 H   0  0  0  1  0  0  0  0  0  0  0  0
   -3.9380    3.5327    1.3236 H   0  0  0  1  0  0  0  0  0  0  0  0
   -3.1622    8.4757    1.1634 H   0  0  0  1  0  0  0  0  0  0  0  0
   -0.2051    7.6540    1.0329 H   0  0  0  1  0  0  0  0  0  0  0  0
  1  4  1  0  0  0  0
  2  4  1  0  0  0  0
  2  5  2  0  0  0  0
  2  6  1  0  0  0  0
  3  4  1  0  0  0  0
  3  7  1  0  0  0  0
  3  8  1  0  0  0  0
  4 19  1  0  0  0  0
  6  9  1  0  0  0  0
  6 12  1  0  0  0  0
  8 10  1  0  0  0  0
  8 11  2  0  0  0  0
  9 13  1  0  0  0  0
  9 14  1  0  0  0  0
  9 15  1  0  0  0  0
 10 16  1  0  0  0  0
 10 17  1  0  0  0  0
 10 18  1  0  0  0  0
 19 20  1  0  0  0  0
 19 28  1  0  0  0  0
 19 29  1  0  0  0  0
 20 21  4  0  0  0  0
 20 25  4  0  0  0  0
 21 22  4  0  0  0  0
 21 30  1  0  0  0  0
 22 23  4  0  0  0  0
 22 27  1  0  0  0  0
 23 24  4  0  0  0  0
 23 26  1  0  0  0  0
 24 25  4  0  0  0  0
 24 31  1  0  0  0  0
 25 32  1  0  0  0  0
 26 33  1  0  0  0  0
 27 34  1  0  0  0  0
M  END
> <BCLConfClusterSize>
1

> <ConfClashScore>
0 

> <ConfOneFourInteractionScore>
-0.939055 

> <ConfScore>
0.0422033 

> <ConfScorePBest>
0.00378957 

> <ConfTolerance>
0.336248 

> <RosettaParamsInstructions>
M  ROOT 3
M  POLY_N_BB 3
M  POLY_CA_BB 4
M  POLY_C_BB 2
M  POLY_O_BB 5
M  POLY_IGNORE 9 10 11 12 13 14 15 16 17 18 
M  POLY_UPPER 6
M  POLY_LOWER 8
M  POLY_CHG 0
M  POLY_PROPERTIES ALPHA_AA L_AA PROTEIN AROMATIC POLYMER 
M  END

$$$$



 34 34  0  0  0  0  0  0  0  0999 V2000
   -1.4405    2.1657    3.0128 H   0  0  0  1  0  0  0  0  0  0  0  0
    0.0150    0.9651    2.0614 C   0  0  0  1  0  0  0  0  0  0  0  0
    0.2052    3.3646    2.6834 N   0  0  0  1  0  0  0  0  0  0  0  0
   -0.6881    2.3001    2.2641 C   0  0  0  1  0  0  0  0  0  0  0  0
    0.4761    0.6263    0.9824 O   0  0  0  1  0  0  0  0  0  0  0  0
    0.1345    0.1303    3.0977 N   0  0  0  1  0  0  0  0  0  0  0  0
    0.5687    3.9573    1.9928 H   0  0  0  1  0  0  0  0  0  0  0  0
    0.5627    3.5874    3.9485 C   0  0  0  1  0  0  0  0  0  0  0  0
    0.8933   -1.1087    3.0143 C   0  0  0  1  0  0  0  0  0  0  0  0
    1.5922    4.6665    4.2221 C   0  0  0  1  0  0  0  0  0  0  0  0
    0.1078    2.9702    4.9079 O   0  0  0  1  0  0  0  0  0  0  0  0
   -0.3040    0.3603    3.9434 H   0  0  0  1  0  0  0  0  0  0  0  0
    1.7357   -0.9690    2.3696 H   0  0  0  1  0  0  0  0  0  0  0  0
    0.2685   -1.8835    2.6215 H   0  0  0  1  0  0  0  0  0  0  0  0
    1.2335   -1.3847    3.9905 H   0  0  0  1  0  0  0  0  0  0  0  0
    2.3953    4.2563    4.7980 H   0  0  0  1  0  0  0  0  0  0  0  0
    1.1347    5.4656    4.7671 H   0  0  0  1  0  0  0  0  0  0  0  0
    1.9732    5.0392    3.2942 H   0  0  0  1  0  0  0  0  0  0  0  0
   -1.3883    2.7037    0.9633 C   0  0  0  1  0  0  0  0  0  0  0  0
   -1.9386    4.1143    0.9986 C   0  0  0  1  0  0  0  0  0  0  0  0
   -1.0684    5.1649    0.7522 C   0  0  0  1  0  0  0  0  0  0  0  0
   -1.5479    6.4599    0.6935 C   0  0  0  1  0  0  0  0  0  0  0  0
   -2.8995    6.7076    0.8757 C   0  0  0  1  0  0  0  0  0  0  0  0
   -3.7669    5.6601    1.1214 C   0  0  0  1  0  0  0  0  0  0  0  0
   -3.2863    4.3612    1.1804 C   0  0  0  1  0  0  0  0  0  0  0  0
   -3.4171    7.9589    0.8221 O   0  0  0  1  0  0  0  0  0  0  0  0
   -0.6387    7.4360    0.4541 O   0  0  0  1  0  0  0  0  0  0  0  0
   -2.1980    2.0265    0.7882 H   0  0  0  1  0  0  0  0  0  0  0  0
   -0.6837    2.6329    0.1611 H   0  0  0  1  0  0  0  0  0  0  0  0
   -0.0549    4.9787    0.6115 H   0  0  0  1  0  0  0  0  0  0  0  0
   -4.7804    5.8463    1.2622 H   0  0  0  1  0  0  0  0  0  0  0  0
   -3.9397    3.5726    1.3613 H   0  0  0  1  0  0  0  0  0  0  0  0
   -3.4575    8.2501   -0.0918 H   0  0  0  1  0  0  0  0  0  0  0  0
   -0.2952    7.7654    1.2878 H   0  0  0  1  0  0  0  0  0  0  0  0
  1  4  1  0  0  0  0
  2  4  1  0  0  0  0
  2  5  2  0  0  0  0
  2  6  1  0  0  0  0
  3  4  1  0  0  0  0
  3  7  1  0  0  0  0
  3  8  1  0  0  0  0
  4 19  1  0  0  0  0
  6  9  1  0  0  0  0
  6 12  1  0  0  0  0
  8 10  1  0  0  0  0
  8 11  2  0  0  0  0
  9 13  1  0  0  0  0
  9 14  1  0  0  0  0
  9 15  1  0  0  0  0
 10 16  1  0  0  0  0
 10 17  1  0  0  0  0
 10 18  1  0  0  0  0
 19 20  1  0  0  0  0
 19 28  1  0  0  0  0
 19 29  1  0  0  0  0
 20 21  4  0  0  0  0
 20 25  4  0  0  0  0
 21 22  4  0  0  0  0
 21 30  1  0  0  0  0
 22 23  4  0  0  0  0
 22 27  1  0  0  0  0
 23 24  4  0  0  0  0
 23 26  1  0  0  0  0
 24 25  4  0  0  0  0
 24 31  1  0  0  0  0
 25 32  1  0  0  0  0
 26 33  1  0  0  0  0
 27 34  1  0  0  0  0
M  END
> <BCLConfClusterSize>
1

> <ConfClashScore>
0 

> <ConfOneFourInteractionScore>
-0.965616 

> <ConfScore>
0.0439267 

> <ConfScorePBest>
0.00376109 

> <ConfTolerance>
0.472457 

> <RosettaParamsInstructions>
M  ROOT 3
M  POLY_N_BB 3
M  POLY_CA_BB 4
M  POLY_C_BB 2
M  POLY_O_BB 5
M  POLY_IGNORE 9 10 11 12 13 14 15 16 17 18 
M  POLY_UPPER 6
M  POLY_LOWER 8
M  POLY_CHG 0
M  POLY_PROPERTIES ALPHA_AA L_AA PROTEIN AROMATIC POLYMER 
M  END

$$$$



 34 34  0  0  0  0  0  0  0  0999 V2000
   -1.3332    2.0737   -0.7656 H   0  0  0  1  0  0  0  0  0  0  0  0
    0.5775    2.8473   -0.2984 C   0  0  0  1  0  0  0  0  0  0  0  0
   -0.2508    0.6913    0.3269 N   0  0  0  1  0  0  0  0  0  0  0  0
   -0.6691    2.0619    0.0733 C   0  0  0  1  0  0  0  0  0  0  0  0
    1.5540    2.8864    0.4490 O   0  0  0  1  0  0  0  0  0  0  0  0
    0.5356    3.4809   -1.4758 N   0  0  0  1  0  0  0  0  0  0  0  0
    0.5012    0.5310    0.9345 H   0  0  0  1  0  0  0  0  0  0  0  0
   -0.8564   -0.3562   -0.2398 C   0  0  0  1  0  0  0  0  0  0  0  0
    1.6574    4.2586   -1.9805 C   0  0  0  1  0  0  0  0  0  0  0  0
   -0.4335   -1.7188    0.2738 C   0  0  0  1  0  0  0  0  0  0  0  0
   -1.7052   -0.2421   -1.1231 O   0  0  0  1  0  0  0  0  0  0  0  0
   -0.2789    3.4193   -2.0173 H   0  0  0  1  0  0  0  0  0  0  0  0
    1.7203    4.1469   -3.0427 H   0  0  0  1  0  0  0  0  0  0  0  0
    2.5637    3.9099   -1.5311 H   0  0  0  1  0  0  0  0  0  0  0  0
    1.5130    5.2909   -1.7386 H   0  0  0  1  0  0  0  0  0  0  0  0
   -0.6003   -1.7701    1.3294 H   0  0  0  1  0  0  0  0  0  0  0  0
    0.6059   -1.8698    0.0694 H   0  0  0  1  0  0  0  0  0  0  0  0
   -1.0076   -2.4779   -0.2151 H   0  0  0  1  0  0  0  0  0  0  0  0
   -1.3807    2.7037    1.2411 C   0  0  0  1  0  0  0  0  0  0  0  0
   -1.9312    4.0908    1.0438 C   0  0  0  1  0  0  0  0  0  0  0  0
   -1.0725    5.1472    0.7826 C   0  0  0  1  0  0  0  0  0  0  0  0
   -1.5783    6.4214    0.6068 C   0  0  0  1  0  0  0  0  0  0  0  0
   -2.9444    6.6421    0.6865 C   0  0  0  1  0  0  0  0  0  0  0  0
   -3.8004    5.5887    0.9471 C   0  0  0  1  0  0  0  0  0  0  0  0
   -3.2934    4.3107    1.1233 C   0  0  0  1  0  0  0  0  0  0  0  0
   -3.4876    7.8720    0.5164 O   0  0  0  1  0  0  0  0  0  0  0  0
   -0.7788    7.4862    0.3547 O   0  0  0  1  0  0  0  0  0  0  0  0
   -0.6865    2.7474    2.0542 H   0  0  0  1  0  0  0  0  0  0  0  0
   -2.2003    2.0685    1.5050 H   0  0  0  1  0  0  0  0  0  0  0  0
   -0.0479    4.9810    0.7188 H   0  0  0  1  0  0  0  0  0  0  0  0
   -4.8251    5.7550    1.0108 H   0  0  0  1  0  0  0  0  0  0  0  0
   -3.9380    3.5174    1.3154 H   0  0  0  1  0  0  0  0  0  0  0  0
   -2.8467    8.5424    0.7643 H   0  0  0  1  0  0  0  0  0  0  0  0
   -0.5543    7.9211    1.1806 H   0  0  0  1  0  0  0  0  0  0  0  0
  1  4  1  0  0  0  0
  2  4  1  0  0  0  0
  2  5  2  0  0  0  0
  2  6  1  0  0  0  0
  3  4  1  0  0  0  0
  3  7  1  0  0  0  0
  3  8  1  0  0  0  0
  4 19  1  0  0  0  0
  6  9  1  0  0  0  0
  6 12  1  0  0  0  0
  8 10  1  0  0  0  0
  8 11  2  0  0  0  0
  9 13  1  0  0  0  0
  9 14  1  0  0  0  0
  9 15  1  0  0  0  0
 10 16  1  0  0  0  0
 10 17  1  0  0  0  0
 10 18  1  0  0  0  0
 19 20  1  0  0  0  0
 19 28  1  0  0  0  0
 19 29  1  0  0  0  0
 20 21  4  0  0  0  0
 20 25  4  0  0  0  0
 21 22  4  0  0  0  0
 21 30  1  0  0  0  0
 22 23  4  0  0  0  0
 22 27  1  0  0  0  0
 23 24  4  0  0  0  0
 23 26  1  0  0  0  0
 24 25  4  0  0  0  0
 24 31  1  0  0  0  0
 25 32  1  0  0  0  0
 26 33  1  0  0  0  0
 27 34  1  0  0  0  0
M  END
> <BCLConfClusterSize>
1

> <ConfClashScore>
0 

> <ConfOneFourInteractionScore>
-0.990503 

> <ConfScore>
0.0447075 

> <ConfScorePBest>
0.00373261 

> <ConfTolerance>
0.404267 

> <RosettaParamsInstructions>
M  ROOT 3
M  POLY_N_BB 3
M  POLY_CA_BB 4
M  POLY_C_BB 2
M  POLY_O_BB 5
M  POLY_IGNORE 9 10 11 12 13 14 15 16 17 18 
M  POLY_UPPER 6
M  POLY_LOWER 8
M  POLY_CHG 0
M  POLY_PROPERTIES ALPHA_AA L_AA PROTEIN AROMATIC POLYMER 
M  END

$$$$



 34 34  0  0  0  0  0  0  0  0999 V2000
    0.5457    3.2851    1.7553 H   0  0  0  1  0  0  0  0  0  0  0  0
    0.5863    1.2427    1.2140 C   0  0  0  1  0  0  0  0  0  0  0  0
    0.5610    3.1493   -0.3076 N   0  0  0  1  0  0  0  0  0  0  0  0
    0.1153    2.6706    0.9924 C   0  0  0  1  0  0  0  0  0  0  0  0
    0.6750    0.4473    0.2796 O   0  0  0  1  0  0  0  0  0  0  0  0
    0.8916    0.9207    2.4760 N   0  0  0  1  0  0  0  0  0  0  0  0
   -0.1174    3.4849   -0.9302 H   0  0  0  1  0  0  0  0  0  0  0  0
    1.8361    3.1605   -0.7064 C   0  0  0  1  0  0  0  0  0  0  0  0
    1.4291   -0.3825    2.8375 C   0  0  0  1  0  0  0  0  0  0  0  0
    2.0946    3.7728   -2.0693 C   0  0  0  1  0  0  0  0  0  0  0  0
    2.7473    2.7114   -0.0309 O   0  0  0  1  0  0  0  0  0  0  0  0
    0.7482    1.5854    3.1817 H   0  0  0  1  0  0  0  0  0  0  0  0
    0.8497   -1.1504    2.3689 H   0  0  0  1  0  0  0  0  0  0  0  0
    1.3875   -0.5029    3.8999 H   0  0  0  1  0  0  0  0  0  0  0  0
    2.4452   -0.4524    2.5096 H   0  0  0  1  0  0  0  0  0  0  0  0
    1.1760    4.1420   -2.4751 H   0  0  0  1  0  0  0  0  0  0  0  0
    2.4997    3.0290   -2.7232 H   0  0  0  1  0  0  0  0  0  0  0  0
    2.7907    4.5796   -1.9713 H   0  0  0  1  0  0  0  0  0  0  0  0
   -1.4030    2.7592    1.1144 C   0  0  0  1  0  0  0  0  0  0  0  0
   -1.9217    4.1685    1.0097 C   0  0  0  1  0  0  0  0  0  0  0  0
   -1.0375    5.2219    0.8360 C   0  0  0  1  0  0  0  0  0  0  0  0
   -1.5141    6.5161    0.7453 C   0  0  0  1  0  0  0  0  0  0  0  0
   -2.8764    6.7602    0.8226 C   0  0  0  1  0  0  0  0  0  0  0  0
   -3.7578    5.7098    0.9958 C   0  0  0  1  0  0  0  0  0  0  0  0
   -3.2800    4.4117    1.0868 C   0  0  0  1  0  0  0  0  0  0  0  0
   -3.3195    8.0373    0.7257 O   0  0  0  1  0  0  0  0  0  0  0  0
   -0.6295    7.5296    0.5809 O   0  0  0  1  0  0  0  0  0  0  0  0
   -1.6923    2.3595    2.0638 H   0  0  0  1  0  0  0  0  0  0  0  0
   -1.8421    2.1757    0.3324 H   0  0  0  1  0  0  0  0  0  0  0  0
   -0.0157    5.0384    0.7740 H   0  0  0  1  0  0  0  0  0  0  0  0
   -4.7796    5.8933    1.0578 H   0  0  0  1  0  0  0  0  0  0  0  0
   -3.9436    3.6210    1.2131 H   0  0  0  1  0  0  0  0  0  0  0  0
   -4.1667    8.1172    1.1701 H   0  0  0  1  0  0  0  0  0  0  0  0
    0.1660    7.1955    0.1600 H   0  0  0  1  0  0  0  0  0  0  0  0
  1  4  1  0  0  0  0
  2  4  1  0  0  0  0
  2  5  2  0  0  0  0
  2  6  1  0  0  0  0
  3  4  1  0  0  0  0
  3  7  1  0  0  0  0
  3  8  1  0  0  0  0
  4 19  1  0  0  0  0
  6  9  1  0  0  0  0
  6 12  1  0  0  0  0
  8 10  1  0  0  0  0
  8 11  2  0  0  0  0
  9 13  1  0  0  0  0
  9 14  1  0  0  0  0
  9 15  1  0  0  0  0
 10 16  1  0  0  0  0
 10 17  1  0  0  0  0
 10 18  1  0  0  0  0
 19 20  1  0  0  0  0
 19 28  1  0  0  0  0
 19 29  1  0  0  0  0
 20 21  4  0  0  0  0
 20 25  4  0  0  0  0
 21 22  4  0  0  0  0
 21 30  1  0  0  0  0
 22 23  4  0  0  0  0
 22 27  1  0  0  0  0
 23 24  4  0  0  0  0
 23 26  1  0  0  0  0
 24 25  4  0  0  0  0
 24 31  1  0  0  0  0
 25 32  1  0  0  0  0
 26 33  1  0  0  0  0
 27 34  1  0  0  0  0
M  END
> <BCLConfClusterSize>
1

> <ConfClashScore>
0 

> <ConfOneFourInteractionScore>
-0.97449 

> <ConfScore>
0.0478819 

> <ConfScorePBest>
0.00370413 

> <ConfTolerance>
0.767725 

> <RosettaParamsInstructions>
M  ROOT 3
M  POLY_N_BB 3
M  POLY_CA_BB 4
M  POLY_C_BB 2
M  POLY_O_BB 5
M  POLY_IGNORE 9 10 11 12 13 14 15 16 17 18 
M  POLY_UPPER 6
M  POLY_LOWER 8
M  POLY_CHG 0
M  POLY_PROPERTIES ALPHA_AA L_AA PROTEIN AROMATIC POLYMER 
M  END

$$$$



 34 34  0  0  0  0  0  0  0  0999 V2000
   -0.6326    1.2846    2.5737 H   0  0  0  1  0  0  0  0  0  0  0  0
   -0.2550    3.1922    3.2223 C   0  0  0  1  0  0  0  0  0  0  0  0
   -2.3647    2.0984    3.3789 N   0  0  0  1  0  0  0  0  0  0  0  0
   -1.1336    2.2293    2.6140 C   0  0  0  1  0  0  0  0  0  0  0  0
    0.8121    3.4680    2.7581 O   0  0  0  1  0  0  0  0  0  0  0  0
   -0.6591    3.8337    4.4021 N   0  0  0  1  0  0  0  0  0  0  0  0
   -3.1031    2.7163    3.1960 H   0  0  0  1  0  0  0  0  0  0  0  0
   -2.5234    1.1653    4.3218 C   0  0  0  1  0  0  0  0  0  0  0  0
    0.1403    4.8718    5.0355 C   0  0  0  1  0  0  0  0  0  0  0  0
   -3.8906    1.1153    4.9756 C   0  0  0  1  0  0  0  0  0  0  0  0
   -1.6291    0.3875    4.6517 O   0  0  0  1  0  0  0  0  0  0  0  0
   -1.5094    3.5739    4.8143 H   0  0  0  1  0  0  0  0  0  0  0  0
   -0.0410    4.8687    6.0900 H   0  0  0  1  0  0  0  0  0  0  0  0
   -0.1280    5.8252    4.6305 H   0  0  0  1  0  0  0  0  0  0  0  0
    1.1777    4.6848    4.8516 H   0  0  0  1  0  0  0  0  0  0  0  0
   -4.4849    0.3611    4.5036 H   0  0  0  1  0  0  0  0  0  0  0  0
   -4.3710    2.0656    4.8702 H   0  0  0  1  0  0  0  0  0  0  0  0
   -3.7806    0.8840    6.0145 H   0  0  0  1  0  0  0  0  0  0  0  0
   -1.4489    2.6776    1.1875 C   0  0  0  1  0  0  0  0  0  0  0  0
   -1.9346    4.0957    1.0493 C   0  0  0  1  0  0  0  0  0  0  0  0
   -1.0226    5.1318    0.9219 C   0  0  0  1  0  0  0  0  0  0  0  0
   -1.4691    6.4342    0.8004 C   0  0  0  1  0  0  0  0  0  0  0  0
   -2.8288    6.7038    0.8005 C   0  0  0  1  0  0  0  0  0  0  0  0
   -3.7379    5.6706    0.9276 C   0  0  0  1  0  0  0  0  0  0  0  0
   -3.2903    4.3643    1.0495 C   0  0  0  1  0  0  0  0  0  0  0  0
   -3.1449    8.0152    0.6699 O   0  0  0  1  0  0  0  0  0  0  0  0
   -0.5207    7.3954    0.6852 O   0  0  0  1  0  0  0  0  0  0  0  0
   -2.2063    2.0299    0.7978 H   0  0  0  1  0  0  0  0  0  0  0  0
   -0.5573    2.5757    0.6048 H   0  0  0  1  0  0  0  0  0  0  0  0
   -0.0025    4.9293    0.9177 H   0  0  0  1  0  0  0  0  0  0  0  0
   -4.7580    5.8732    0.9317 H   0  0  0  1  0  0  0  0  0  0  0  0
   -3.9746    3.5865    1.1410 H   0  0  0  1  0  0  0  0  0  0  0  0
   -3.7405    8.2732    1.3772 H   0  0  0  1  0  0  0  0  0  0  0  0
   -0.6058    7.8291   -0.1670 H   0  0  0  1  0  0  0  0  0  0  0  0
  1  4  1  0  0  0  0
  2  4  1  0  0  0  0
  2  5  2  0  0  0  0
  2  6  1  0  0  0  0
  3  4  1  0  0  0  0
  3  7  1  0  0  0  0
  3  8  1  0  0  0  0
  4 19  1  0  0  0  0
  6  9  1  0  0  0  0
  6 12  1  0  0  0  0
  8 10  1  0  0  0  0
  8 11  2  0  0  0  0
  9 13  1  0  0  0  0
  9 14  1  0  0  0  0
  9 15  1  0  0  0  0
 10 16  1  0  0  0  0
 10 17  1  0  0  0  0
 10 18  1  0  0  0  0
 19 20  1  0  0  0  0
 19 28  1  0  0  0  0
 19 29  1  0  0  0  0
 20 21  4  0  0  0  0
 20 25  4  0  0  0  0
 21 22  4  0  0  0  0
 21 30  1  0  0  0  0
 22 23  4  0  0  0  0
 22 27  1  0  0  0  0
 23 24  4  0  0  0  0
 23 26  1  0  0  0  0
 24 25  4  0  0  0  0
 24 31  1  0  0  0  0
 25 32  1  0  0  0  0
 26 33  1  0  0  0  0
 27 34  1  0  0  0  0
M  END
> <BCLConfClusterSize>
1

> <ConfClashScore>
0 

> <ConfOneFourInteractionScore>
-0.957074 

> <ConfScore>
0.0486406 

> <ConfScorePBest>
0.00367564 

> <ConfTolerance>
0.447307 

> <RosettaParamsInstructions>
M  ROOT 3
M  POLY_N_BB 3
M  POLY_CA_BB 4
M  POLY_C_BB 2
M  POLY_O_BB 5
M  POLY_IGNORE 9 10 11 12 13 14 15 16 17 18 
M  POLY_UPPER 6
M  POLY_LOWER 8
M  POLY_CHG 0
M  POLY_PROPERTIES ALPHA_AA L_AA PROTEIN AROMATIC POLYMER 
M  END

$$$$



 34 34  0  0  0  0  0  0  0  0999 V2000
   -0.6640    1.0829   -0.0573 H   0  0  0  1  0  0  0  0  0  0  0  0
   -2.3928    1.8584   -0.9997 C   0  0  0  1  0  0  0  0  0  0  0  0
   -0.1423    2.8067   -1.0737 N   0  0  0  1  0  0  0  0  0  0  0  0
   -1.0779    2.0497   -0.2542 C   0  0  0  1  0  0  0  0  0  0  0  0
   -2.7010    2.5807   -1.9440 O   0  0  0  1  0  0  0  0  0  0  0  0
   -3.1710    0.8659   -0.5587 N   0  0  0  1  0  0  0  0  0  0  0  0
    0.2110    3.6425   -0.7034 H   0  0  0  1  0  0  0  0  0  0  0  0
    0.2749    2.4443   -2.3045 C   0  0  0  1  0  0  0  0  0  0  0  0
   -4.4562    0.5567   -1.1673 C   0  0  0  1  0  0  0  0  0  0  0  0
    1.0710    3.4467   -3.1090 C   0  0  0  1  0  0  0  0  0  0  0  0
    0.0168    1.3334   -2.7603 O   0  0  0  1  0  0  0  0  0  0  0  0
   -2.8656    0.3274    0.2010 H   0  0  0  1  0  0  0  0  0  0  0  0
   -4.8025    1.4044   -1.7208 H   0  0  0  1  0  0  0  0  0  0  0  0
   -5.1646    0.3172   -0.4019 H   0  0  0  1  0  0  0  0  0  0  0  0
   -4.3466   -0.2788   -1.8266 H   0  0  0  1  0  0  0  0  0  0  0  0
    2.0085    3.0147   -3.3909 H   0  0  0  1  0  0  0  0  0  0  0  0
    1.2451    4.3210   -2.5172 H   0  0  0  1  0  0  0  0  0  0  0  0
    0.5230    3.7139   -3.9883 H   0  0  0  1  0  0  0  0  0  0  0  0
   -1.3157    2.7431    1.0809 C   0  0  0  1  0  0  0  0  0  0  0  0
   -1.9427    4.1090    0.9960 C   0  0  0  1  0  0  0  0  0  0  0  0
   -1.1074    5.1913    0.7664 C   0  0  0  1  0  0  0  0  0  0  0  0
   -1.6350    6.4662    0.6856 C   0  0  0  1  0  0  0  0  0  0  0  0
   -2.9998    6.6621    0.8287 C   0  0  0  1  0  0  0  0  0  0  0  0
   -3.8324    5.5829    1.0575 C   0  0  0  1  0  0  0  0  0  0  0  0
   -3.3035    4.3042    1.1386 C   0  0  0  1  0  0  0  0  0  0  0  0
   -3.4459    7.9382    0.7323 O   0  0  0  1  0  0  0  0  0  0  0  0
   -0.8587    7.5555    0.4679 O   0  0  0  1  0  0  0  0  0  0  0  0
   -0.3711    2.8436    1.5735 H   0  0  0  1  0  0  0  0  0  0  0  0
   -1.9593    2.1203    1.6663 H   0  0  0  1  0  0  0  0  0  0  0  0
   -0.0840    5.0439    0.6551 H   0  0  0  1  0  0  0  0  0  0  0  0
   -4.8558    5.7303    1.1689 H   0  0  0  1  0  0  0  0  0  0  0  0
   -3.9306    3.4917    1.3068 H   0  0  0  1  0  0  0  0  0  0  0  0
   -2.8554    8.4423    0.1676 H   0  0  0  1  0  0  0  0  0  0  0  0
   -0.3124    7.7192    1.2401 H   0  0  0  1  0  0  0  0  0  0  0  0
  1  4  1  0  0  0  0
  2  4  1  0  0  0  0
  2  5  2  0  0  0  0
  2  6  1  0  0  0  0
  3  4  1  0  0  0  0
  3  7  1  0  0  0  0
  3  8  1  0  0  0  0
  4 19  1  0  0  0  0
  6  9  1  0  0  0  0
  6 12  1  0  0  0  0
  8 10  1  0  0  0  0
  8 11  2  0  0  0  0
  9 13  1  0  0  0  0
  9 14  1  0  0  0  0
  9 15  1  0  0  0  0
 10 16  1  0  0  0  0
 10 17  1  0  0  0  0
 10 18  1  0  0  0  0
 19 20  1  0  0  0  0
 19 28  1  0  0  0  0
 19 29  1  0  0  0  0
 20 21  4  0  0  0  0
 20 25  4  0  0  0  0
 21 22  4  0  0  0  0
 21 30  1  0  0  0  0
 22 23  4  0  0  0  0
 22 27  1  0  0  0  0
 23 24  4  0  0  0  0
 23 26  1  0  0  0  0
 24 25  4  0  0  0  0
 24 31  1  0  0  0  0
 25 32  1  0  0  0  0
 26 33  1  0  0  0  0
 27 34  1  0  0  0  0
M  END
> <BCLConfClusterSize>
1

> <ConfClashScore>
0 

> <ConfOneFourInteractionScore>
-0.976093 

> <ConfScore>
0.0502457 

> <ConfScorePBest>
0.00364716 

> <ConfTolerance>
0.373005 

> <RosettaParamsInstructions>
M  ROOT 3
M  POLY_N_BB 3
M  POLY_CA_BB 4
M  POLY_C_BB 2
M  POLY_O_BB 5
M  POLY_IGNORE 9 10 11 12 13 14 15 16 17 18 
M  POLY_UPPER 6
M  POLY_LOWER 8
M  POLY_CHG 0
M  POLY_PROPERTIES ALPHA_AA L_AA PROTEIN AROMATIC POLYMER 
M  END

$$$$



 34 34  0  0  0  0  0  0  0  0999 V2000
   -2.1348    2.5335    3.1798 H   0  0  0  1  0  0  0  0  0  0  0  0
   -1.2722    0.6845    2.7273 C   0  0  0  1  0  0  0  0  0  0  0  0
   -0.1169    2.8036    3.2779 N   0  0  0  1  0  0  0  0  0  0  0  0
   -1.2763    2.2083    2.6302 C   0  0  0  1  0  0  0  0  0  0  0  0
   -1.7211   -0.0143    1.8197 O   0  0  0  1  0  0  0  0  0  0  0  0
   -0.7526    0.1733    3.8546 N   0  0  0  1  0  0  0  0  0  0  0  0
   -0.2581    3.4962    3.9567 H   0  0  0  1  0  0  0  0  0  0  0  0
    1.1804    2.4250    2.9679 C   0  0  0  1  0  0  0  0  0  0  0  0
   -0.5720   -1.2577    4.0482 C   0  0  0  1  0  0  0  0  0  0  0  0
    2.3245    3.0784    3.6909 C   0  0  0  1  0  0  0  0  0  0  0  0
    1.3501    1.5717    2.1161 O   0  0  0  1  0  0  0  0  0  0  0  0
   -0.4857    0.7851    4.5722 H   0  0  0  1  0  0  0  0  0  0  0  0
   -0.1138   -1.6807    3.1787 H   0  0  0  1  0  0  0  0  0  0  0  0
   -1.5241   -1.7186    4.2094 H   0  0  0  1  0  0  0  0  0  0  0  0
    0.0548   -1.4259    4.8990 H   0  0  0  1  0  0  0  0  0  0  0  0
    2.3411    2.7458    4.7077 H   0  0  0  1  0  0  0  0  0  0  0  0
    2.2019    4.1411    3.6655 H   0  0  0  1  0  0  0  0  0  0  0  0
    3.2452    2.8137    3.2142 H   0  0  0  1  0  0  0  0  0  0  0  0
   -1.4827    2.6953    1.2152 C   0  0  0  1  0  0  0  0  0  0  0  0
   -1.9193    4.1236    1.0273 C   0  0  0  1  0  0  0  0  0  0  0  0
   -1.0254    5.1399    0.7282 C   0  0  0  1  0  0  0  0  0  0  0  0
   -1.4798    6.4357    0.5712 C   0  0  0  1  0  0  0  0  0  0  0  0
   -2.8300    6.7182    0.7075 C   0  0  0  1  0  0  0  0  0  0  0  0
   -3.7212    5.7047    1.0057 C   0  0  0  1  0  0  0  0  0  0  0  0
   -3.2657    4.4050    1.1632 C   0  0  0  1  0  0  0  0  0  0  0  0
   -3.2032    8.0095    0.5347 O   0  0  0  1  0  0  0  0  0  0  0  0
   -0.5857    7.4130    0.2843 O   0  0  0  1  0  0  0  0  0  0  0  0
   -2.2276    2.0712    0.7673 H   0  0  0  1  0  0  0  0  0  0  0  0
   -0.5551    2.5731    0.6961 H   0  0  0  1  0  0  0  0  0  0  0  0
   -0.0129    4.9274    0.6220 H   0  0  0  1  0  0  0  0  0  0  0  0
   -4.7337    5.9172    1.1120 H   0  0  0  1  0  0  0  0  0  0  0  0
   -3.9369    3.6418    1.3836 H   0  0  0  1  0  0  0  0  0  0  0  0
   -4.1055    8.1261    0.8411 H   0  0  0  1  0  0  0  0  0  0  0  0
   -0.1774    7.7222    1.0962 H   0  0  0  1  0  0  0  0  0  0  0  0
  1  4  1  0  0  0  0
  2  4  1  0  0  0  0
  2  5  2  0  0  0  0
  2  6  1  0  0  0  0
  3  4  1  0  0  0  0
  3  7  1  0  0  0  0
  3  8  1  0  0  0  0
  4 19  1  0  0  0  0
  6  9  1  0  0  0  0
  6 12  1  0  0  0  0
  8 10  1  0  0  0  0
  8 11  2  0  0  0  0
  9 13  1  0  0  0  0
  9 14  1  0  0  0  0
  9 15  1  0  0  0  0
 10 16  1  0  0  0  0
 10 17  1  0  0  0  0
 10 18  1  0  0  0  0
 19 20  1  0  0  0  0
 19 28  1  0  0  0  0
 19 29  1  0  0  0  0
 20 21  4  0  0  0  0
 20 25  4  0  0  0  0
 21 22  4  0  0  0  0
 21 30  1  0  0  0  0
 22 23  4  0  0  0  0
 22 27  1  0  0  0  0
 23 24  4  0  0  0  0
 23 26  1  0  0  0  0
 24 25  4  0  0  0  0
 24 31  1  0  0  0  0
 25 32  1  0  0  0  0
 26 33  1  0  0  0  0
 27 34  1  0  0  0  0
M  END
> <BCLConfClusterSize>
1

> <ConfClashScore>
0 

> <ConfOneFourInteractionScore>
-0.957364 

> <ConfScore>
0.0534355 

> <ConfScorePBest>
0.00361868 

> <ConfTolerance>
0.54405 

> <RosettaParamsInstructions>
M  ROOT 3
M  POLY_N_BB 3
M  POLY_CA_BB 4
M  POLY_C_BB 2
M  POLY_O_BB 5
M  POLY_IGNORE 9 10 11 12 13 14 15 16 17 18 
M  POLY_UPPER 6
M  POLY_LOWER 8
M  POLY_CHG 0
M  POLY_PROPERTIES ALPHA_AA L_AA PROTEIN AROMATIC POLYMER 
M  END

$$$$



 34 34  0  0  0  0  0  0  0  0999 V2000
   -1.1307    2.5646   -1.1424 H   0  0  0  1  0  0  0  0  0  0  0  0
   -1.2844    0.5934   -0.4181 C   0  0  0  1  0  0  0  0  0  0  0  0
   -3.1127    2.1347   -0.7823 N   0  0  0  1  0  0  0  0  0  0  0  0
   -1.7101    2.0521   -0.4031 C   0  0  0  1  0  0  0  0  0  0  0  0
   -0.3551    0.2000    0.2856 O   0  0  0  1  0  0  0  0  0  0  0  0
   -1.9552   -0.2548   -1.2249 N   0  0  0  1  0  0  0  0  0  0  0  0
   -3.3688    2.7250   -1.5214 H   0  0  0  1  0  0  0  0  0  0  0  0
   -4.0633    1.4336   -0.1578 C   0  0  0  1  0  0  0  0  0  0  0  0
   -1.5939   -1.6640   -1.2657 C   0  0  0  1  0  0  0  0  0  0  0  0
   -5.4876    1.7272   -0.5871 C   0  0  0  1  0  0  0  0  0  0  0  0
   -3.8178    0.5992    0.7123 O   0  0  0  1  0  0  0  0  0  0  0  0
   -2.6872    0.0787   -1.7846 H   0  0  0  1  0  0  0  0  0  0  0  0
   -1.2777   -1.9799   -0.2935 H   0  0  0  1  0  0  0  0  0  0  0  0
   -0.7961   -1.8073   -1.9641 H   0  0  0  1  0  0  0  0  0  0  0  0
   -2.4424   -2.2408   -1.5694 H   0  0  0  1  0  0  0  0  0  0  0  0
   -5.8537    2.5784   -0.0520 H   0  0  0  1  0  0  0  0  0  0  0  0
   -6.1056    0.8799   -0.3749 H   0  0  0  1  0  0  0  0  0  0  0  0
   -5.5086    1.9305   -1.6374 H   0  0  0  1  0  0  0  0  0  0  0  0
   -1.4598    2.7399    0.9325 C   0  0  0  1  0  0  0  0  0  0  0  0
   -1.9175    4.1738    0.9523 C   0  0  0  1  0  0  0  0  0  0  0  0
   -1.0353    5.2365    0.8335 C   0  0  0  1  0  0  0  0  0  0  0  0
   -1.5092    6.5345    0.8633 C   0  0  0  1  0  0  0  0  0  0  0  0
   -2.8670    6.7737    1.0065 C   0  0  0  1  0  0  0  0  0  0  0  0
   -3.7464    5.7141    1.1250 C   0  0  0  1  0  0  0  0  0  0  0  0
   -3.2714    4.4122    1.0951 C   0  0  0  1  0  0  0  0  0  0  0  0
   -3.4222    8.0095    1.0411 O   0  0  0  1  0  0  0  0  0  0  0  0
   -0.5885    7.5222    0.7470 O   0  0  0  1  0  0  0  0  0  0  0  0
   -0.4098    2.7148    1.1371 H   0  0  0  1  0  0  0  0  0  0  0  0
   -1.9852    2.2042    1.6953 H   0  0  0  1  0  0  0  0  0  0  0  0
   -0.0170    5.0570    0.7219 H   0  0  0  1  0  0  0  0  0  0  0  0
   -4.7648    5.8935    1.2365 H   0  0  0  1  0  0  0  0  0  0  0  0
   -3.9337    3.6148    1.1802 H   0  0  0  1  0  0  0  0  0  0  0  0
   -4.0884    8.0809    0.3535 H   0  0  0  1  0  0  0  0  0  0  0  0
    0.1419    7.2171    0.2038 H   0  0  0  1  0  0  0  0  0  0  0  0
  1  4  1  0  0  0  0
  2  4  1  0  0  0  0
  2  5  2  0  0  0  0
  2  6  1  0  0  0  0
  3  4  1  0  0  0  0
  3  7  1  0  0  0  0
  3  8  1  0  0  0  0
  4 19  1  0  0  0  0
  6  9  1  0  0  0  0
  6 12  1  0  0  0  0
  8 10  1  0  0  0  0
  8 11  2  0  0  0  0
  9 13  1  0  0  0  0
  9 14  1  0  0  0  0
  9 15  1  0  0  0  0
 10 16  1  0  0  0  0
 10 17  1  0  0  0  0
 10 18  1  0  0  0  0
 19 20  1  0  0  0  0
 19 28  1  0  0  0  0
 19 29  1  0  0  0  0
 20 21  4  0  0  0  0
 20 25  4  0  0  0  0
 21 22  4  0  0  0  0
 21 30  1  0  0  0  0
 22 23  4  0  0  0  0
 22 27  1  0  0  0  0
 23 24  4  0  0  0  0
 23 26  1  0  0  0  0
 24 25  4  0  0  0  0
 24 31  1  0  0  0  0
 25 32  1  0  0  0  0
 26 33  1  0  0  0  0
 27 34  1  0  0  0  0
M  END
> <BCLConfClusterSize>
1

> <ConfClashScore>
0 

> <ConfOneFourInteractionScore>
-0.938696 

> <ConfScore>
0.0537503 

> <ConfScorePBest>
0.0035902 

> <ConfTolerance>
0.442413 

> <RosettaParamsInstructions>
M  ROOT 3
M  POLY_N_BB 3
M  POLY_CA_BB 4
M  POLY_C_BB 2
M  POLY_O_BB 5
M  POLY_IGNORE 9 10 11 12 13 14 15 16 17 18 
M  POLY_UPPER 6
M  POLY_LOWER 8
M  POLY_CHG 0
M  POLY_PROPERTIES ALPHA_AA L_AA PROTEIN AROMATIC POLYMER 
M  END

$$$$



 34 34  0  0  0  0  0  0  0  0999 V2000
   -0.7560    0.9206    0.3148 H   0  0  0  1  0  0  0  0  0  0  0  0
   -2.0613    1.8920   -1.0090 C   0  0  0  1  0  0  0  0  0  0  0  0
    0.2564    2.5378   -0.4545 N   0  0  0  1  0  0  0  0  0  0  0  0
   -0.9714    1.9315    0.0381 C   0  0  0  1  0  0  0  0  0  0  0  0
   -2.1237    2.7510   -1.8876 O   0  0  0  1  0  0  0  0  0  0  0  0
   -2.9523    0.8981   -0.9511 N   0  0  0  1  0  0  0  0  0  0  0  0
    0.2385    3.4738   -0.7445 H   0  0  0  1  0  0  0  0  0  0  0  0
    1.4073    1.8628   -0.5251 C   0  0  0  1  0  0  0  0  0  0  0  0
   -4.0612    0.7920   -1.8887 C   0  0  0  1  0  0  0  0  0  0  0  0
    2.5342    2.5577   -1.2642 C   0  0  0  1  0  0  0  0  0  0  0  0
    1.5613    0.7498   -0.0292 O   0  0  0  1  0  0  0  0  0  0  0  0
   -2.8562    0.2169   -0.2532 H   0  0  0  1  0  0  0  0  0  0  0  0
   -4.4535    1.7669   -2.0898 H   0  0  0  1  0  0  0  0  0  0  0  0
   -4.8291    0.1793   -1.4646 H   0  0  0  1  0  0  0  0  0  0  0  0
   -3.7159    0.3517   -2.8007 H   0  0  0  1  0  0  0  0  0  0  0  0
    2.2367    2.7446   -2.2749 H   0  0  0  1  0  0  0  0  0  0  0  0
    3.4030    1.9331   -1.2581 H   0  0  0  1  0  0  0  0  0  0  0  0
    2.7582    3.4859   -0.7813 H   0  0  0  1  0  0  0  0  0  0  0  0
   -1.4399    2.6509    1.2924 C   0  0  0  1  0  0  0  0  0  0  0  0
   -1.9480    4.0520    1.0809 C   0  0  0  1  0  0  0  0  0  0  0  0
   -1.0131    5.0576    0.8910 C   0  0  0  1  0  0  0  0  0  0  0  0
   -1.4300    6.3612    0.6981 C   0  0  0  1  0  0  0  0  0  0  0  0
   -2.7831    6.6621    0.6892 C   0  0  0  1  0  0  0  0  0  0  0  0
   -3.7151    5.6593    0.8786 C   0  0  0  1  0  0  0  0  0  0  0  0
   -3.2972    4.3519    1.0721 C   0  0  0  1  0  0  0  0  0  0  0  0
   -3.2403    7.9236    0.4988 O   0  0  0  1  0  0  0  0  0  0  0  0
   -0.5541    7.3787    0.5134 O   0  0  0  1  0  0  0  0  0  0  0  0
   -0.6157    2.6979    1.9732 H   0  0  0  1  0  0  0  0  0  0  0  0
   -2.2301    2.0753    1.7274 H   0  0  0  1  0  0  0  0  0  0  0  0
    0.0020    4.8313    0.8936 H   0  0  0  1  0  0  0  0  0  0  0  0
   -4.7302    5.8857    0.8759 H   0  0  0  1  0  0  0  0  0  0  0  0
   -3.9988    3.5968    1.2106 H   0  0  0  1  0  0  0  0  0  0  0  0
   -3.2939    8.3760    1.3438 H   0  0  0  1  0  0  0  0  0  0  0  0
   -1.0375    8.1927    0.3539 H   0  0  0  1  0  0  0  0  0  0  0  0
  1  4  1  0  0  0  0
  2  4  1  0  0  0  0
  2  5  2  0  0  0  0
  2  6  1  0  0  0  0
  3  4  1  0  0  0  0
  3  7  1  0  0  0  0
  3  8  1  0  0  0  0
  4 19  1  0  0  0  0
  6  9  1  0  0  0  0
  6 12  1  0  0  0  0
  8 10  1  0  0  0  0
  8 11  2  0  0  0  0
  9 13  1  0  0  0  0
  9 14  1  0  0  0  0
  9 15  1  0  0  0  0
 10 16  1  0  0  0  0
 10 17  1  0  0  0  0
 10 18  1  0  0  0  0
 19 20  1  0  0  0  0
 19 28  1  0  0  0  0
 19 29  1  0  0  0  0
 20 21  4  0  0  0  0
 20 25  4  0  0  0  0
 21 22  4  0  0  0  0
 21 30  1  0  0  0  0
 22 23  4  0  0  0  0
 22 27  1  0  0  0  0
 23 24  4  0  0  0  0
 23 26  1  0  0  0  0
 24 25  4  0  0  0  0
 24 31  1  0  0  0  0
 25 32  1  0  0  0  0
 26 33  1  0  0  0  0
 27 34  1  0  0  0  0
M  END
> <BCLConfClusterSize>
1

> <ConfClashScore>
0 

> <ConfOneFourInteractionScore>
-0.982563 

> <ConfScore>
0.0656901 

> <ConfScorePBest>
0.00356172 

> <ConfTolerance>
0.526232 

> <RosettaParamsInstructions>
M  ROOT 3
M  POLY_N_BB 3
M  POLY_CA_BB 4
M  POLY_C_BB 2
M  POLY_O_BB 5
M  POLY_IGNORE 9 10 11 12 13 14 15 16 17 18 
M  POLY_UPPER 6
M  POLY_LOWER 8
M  POLY_CHG 0
M  POLY_PROPERTIES ALPHA_AA L_AA PROTEIN AROMATIC POLYMER 
M  END

$$$$



 34 34  0  0  0  0  0  0  0  0999 V2000
   -1.1591    1.2820    2.9160 H   0  0  0  1  0  0  0  0  0  0  0  0
   -0.4012    3.1295    3.5698 C   0  0  0  1  0  0  0  0  0  0  0  0
   -2.7931    2.4766    3.3457 N   0  0  0  1  0  0  0  0  0  0  0  0
   -1.4317    2.3125    2.8238 C   0  0  0  1  0  0  0  0  0  0  0  0
   -0.6306    4.2886    3.9107 O   0  0  0  1  0  0  0  0  0  0  0  0
    0.7531    2.5120    3.8259 N   0  0  0  1  0  0  0  0  0  0  0  0
   -3.4963    2.7936    2.7413 H   0  0  0  1  0  0  0  0  0  0  0  0
   -3.1073    2.2088    4.6164 C   0  0  0  1  0  0  0  0  0  0  0  0
    1.8430    3.0745    4.6092 C   0  0  0  1  0  0  0  0  0  0  0  0
   -4.5639    2.4039    4.9899 C   0  0  0  1  0  0  0  0  0  0  0  0
   -2.2814    1.8275    5.4446 O   0  0  0  1  0  0  0  0  0  0  0  0
    0.8764    1.6117    3.4590 H   0  0  0  1  0  0  0  0  0  0  0  0
    2.5880    3.4709    3.9515 H   0  0  0  1  0  0  0  0  0  0  0  0
    2.2762    2.3090    5.2184 H   0  0  0  1  0  0  0  0  0  0  0  0
    1.4660    3.8573    5.2337 H   0  0  0  1  0  0  0  0  0  0  0  0
   -4.7896    3.4496    5.0136 H   0  0  0  1  0  0  0  0  0  0  0  0
   -4.7445    1.9784    5.9549 H   0  0  0  1  0  0  0  0  0  0  0  0
   -5.1855    1.9214    4.2648 H   0  0  0  1  0  0  0  0  0  0  0  0
   -1.4874    2.6369    1.3367 C   0  0  0  1  0  0  0  0  0  0  0  0
   -1.9345    4.0580    1.0551 C   0  0  0  1  0  0  0  0  0  0  0  0
   -1.0217    5.0913    0.9117 C   0  0  0  1  0  0  0  0  0  0  0  0
   -1.4675    6.3898    0.7518 C   0  0  0  1  0  0  0  0  0  0  0  0
   -2.8273    6.6581    0.7293 C   0  0  0  1  0  0  0  0  0  0  0  0
   -3.7372    5.6277    0.8722 C   0  0  0  1  0  0  0  0  0  0  0  0
   -3.2904    4.3254    1.0326 C   0  0  0  1  0  0  0  0  0  0  0  0
   -3.1904    7.9532    0.5635 O   0  0  0  1  0  0  0  0  0  0  0  0
   -0.6141    7.4334    0.6131 O   0  0  0  1  0  0  0  0  0  0  0  0
   -2.1744    1.9643    0.8669 H   0  0  0  1  0  0  0  0  0  0  0  0
   -0.5112    2.4983    0.9211 H   0  0  0  1  0  0  0  0  0  0  0  0
   -0.0015    4.8895    0.9246 H   0  0  0  1  0  0  0  0  0  0  0  0
   -4.7574    5.8295    0.8593 H   0  0  0  1  0  0  0  0  0  0  0  0
   -3.9753    3.5496    1.1362 H   0  0  0  1  0  0  0  0  0  0  0  0
   -3.1383    8.4109    1.4058 H   0  0  0  1  0  0  0  0  0  0  0  0
   -1.0362    8.1266    0.1004 H   0  0  0  1  0  0  0  0  0  0  0  0
  1  4  1  0  0  0  0
  2  4  1  0  0  0  0
  2  5  2  0  0  0  0
  2  6  1  0  0  0  0
  3  4  1  0  0  0  0
  3  7  1  0  0  0  0
  3  8  1  0  0  0  0
  4 19  1  0  0  0  0
  6  9  1  0  0  0  0
  6 12  1  0  0  0  0
  8 10  1  0  0  0  0
  8 11  2  0  0  0  0
  9 13  1  0  0  0  0
  9 14  1  0  0  0  0
  9 15  1  0  0  0  0
 10 16  1  0  0  0  0
 10 17  1  0  0  0  0
 10 18  1  0  0  0  0
 19 20  1  0  0  0  0
 19 28  1  0  0  0  0
 19 29  1  0  0  0  0
 20 21  4  0  0  0  0
 20 25  4  0  0  0  0
 21 22  4  0  0  0  0
 21 30  1  0  0  0  0
 22 23  4  0  0  0  0
 22 27  1  0  0  0  0
 23 24  4  0  0  0  0
 23 26  1  0  0  0  0
 24 25  4  0  0  0  0
 24 31  1  0  0  0  0
 25 32  1  0  0  0  0
 26 33  1  0  0  0  0
 27 34  1  0  0  0  0
M  END
> <BCLConfClusterSize>
1

> <ConfClashScore>
0 

> <ConfOneFourInteractionScore>
-0.976093 

> <ConfScore>
0.066406 

> <ConfScorePBest>
0.00353324 

> <ConfTolerance>
0.562968 

> <RosettaParamsInstructions>
M  ROOT 3
M  POLY_N_BB 3
M  POLY_CA_BB 4
M  POLY_C_BB 2
M  POLY_O_BB 5
M  POLY_IGNORE 9 10 11 12 13 14 15 16 17 18 
M  POLY_UPPER 6
M  POLY_LOWER 8
M  POLY_CHG 0
M  POLY_PROPERTIES ALPHA_AA L_AA PROTEIN AROMATIC POLYMER 
M  END

$$$$



 34 34  0  0  0  0  0  0  0  0999 V2000
   -1.0432    1.0856    2.3639 H   0  0  0  1  0  0  0  0  0  0  0  0
   -0.1034    2.8317    3.0722 C   0  0  0  1  0  0  0  0  0  0  0  0
   -2.5125    2.2643    3.1919 N   0  0  0  1  0  0  0  0  0  0  0  0
   -1.2854    2.1262    2.4219 C   0  0  0  1  0  0  0  0  0  0  0  0
    1.0042    2.2993    3.1313 O   0  0  0  1  0  0  0  0  0  0  0  0
   -0.3541    4.0542    3.5668 N   0  0  0  1  0  0  0  0  0  0  0  0
   -3.0242    3.0971    3.1209 H   0  0  0  1  0  0  0  0  0  0  0  0
   -2.9703    1.2857    4.0000 C   0  0  0  1  0  0  0  0  0  0  0  0
    0.6563    4.8308    4.2694 C   0  0  0  1  0  0  0  0  0  0  0  0
   -4.2532    1.5339    4.7606 C   0  0  0  1  0  0  0  0  0  0  0  0
   -2.3636    0.2217    4.1163 O   0  0  0  1  0  0  0  0  0  0  0  0
   -1.2488    4.4371    3.4507 H   0  0  0  1  0  0  0  0  0  0  0  0
    0.4115    5.8708    4.2119 H   0  0  0  1  0  0  0  0  0  0  0  0
    1.6119    4.6641    3.8177 H   0  0  0  1  0  0  0  0  0  0  0  0
    0.6886    4.5285    5.2953 H   0  0  0  1  0  0  0  0  0  0  0  0
   -4.5749    2.5416    4.5991 H   0  0  0  1  0  0  0  0  0  0  0  0
   -4.0841    1.3769    5.8054 H   0  0  0  1  0  0  0  0  0  0  0  0
   -5.0084    0.8590    4.4156 H   0  0  0  1  0  0  0  0  0  0  0  0
   -1.5065    2.6210    0.9916 C   0  0  0  1  0  0  0  0  0  0  0  0
   -1.9358    4.0638    0.9864 C   0  0  0  1  0  0  0  0  0  0  0  0
   -1.0297    5.1077    0.8816 C   0  0  0  1  0  0  0  0  0  0  0  0
   -1.4782    6.4150    0.8872 C   0  0  0  1  0  0  0  0  0  0  0  0
   -2.8343    6.6823    0.9923 C   0  0  0  1  0  0  0  0  0  0  0  0
   -3.7375    5.6414    1.0968 C   0  0  0  1  0  0  0  0  0  0  0  0
   -3.2880    4.3302    1.0911 C   0  0  0  1  0  0  0  0  0  0  0  0
   -3.2008    7.9870    0.9858 O   0  0  0  1  0  0  0  0  0  0  0  0
   -0.5353    7.3832    0.7866 O   0  0  0  1  0  0  0  0  0  0  0  0
   -2.2665    2.0272    0.5284 H   0  0  0  1  0  0  0  0  0  0  0  0
   -0.5935    2.5247    0.4420 H   0  0  0  1  0  0  0  0  0  0  0  0
   -0.0126    4.9071    0.7987 H   0  0  0  1  0  0  0  0  0  0  0  0
   -4.7547    5.8420    1.1796 H   0  0  0  1  0  0  0  0  0  0  0  0
   -3.9681    3.5469    1.1657 H   0  0  0  1  0  0  0  0  0  0  0  0
   -3.2815    8.2927    0.0793 H   0  0  0  1  0  0  0  0  0  0  0  0
   -0.9162    8.1595    0.3696 H   0  0  0  1  0  0  0  0  0  0  0  0
  1  4  1  0  0  0  0
  2  4  1  0  0  0  0
  2  5  2  0  0  0  0
  2  6  1  0  0  0  0
  3  4  1  0  0  0  0
  3  7  1  0  0  0  0
  3  8  1  0  0  0  0
  4 19  1  0  0  0  0
  6  9  1  0  0  0  0
  6 12  1  0  0  0  0
  8 10  1  0  0  0  0
  8 11  2  0  0  0  0
  9 13  1  0  0  0  0
  9 14  1  0  0  0  0
  9 15  1  0  0  0  0
 10 16  1  0  0  0  0
 10 17  1  0  0  0  0
 10 18  1  0  0  0  0
 19 20  1  0  0  0  0
 19 28  1  0  0  0  0
 19 29  1  0  0  0  0
 20 21  4  0  0  0  0
 20 25  4  0  0  0  0
 21 22  4  0  0  0  0
 21 30  1  0  0  0  0
 22 23  4  0  0  0  0
 22 27  1  0  0  0  0
 23 24  4  0  0  0  0
 23 26  1  0  0  0  0
 24 25  4  0  0  0  0
 24 31  1  0  0  0  0
 25 32  1  0  0  0  0
 26 33  1  0  0  0  0
 27 34  1  0  0  0  0
M  END
> <BCLConfClusterSize>
1

> <ConfClashScore>
0 

> <ConfOneFourInteractionScore>
-0.950605 

> <ConfScore>
0.0668781 

> <ConfScorePBest>
0.00350476 

> <ConfTolerance>
0.524589 

> <RosettaParamsInstructions>
M  ROOT 3
M  POLY_N_BB 3
M  POLY_CA_BB 4
M  POLY_C_BB 2
M  POLY_O_BB 5
M  POLY_IGNORE 9 10 11 12 13 14 15 16 17 18 
M  POLY_UPPER 6
M  POLY_LOWER 8
M  POLY_CHG 0
M  POLY_PROPERTIES ALPHA_AA L_AA PROTEIN AROMATIC POLYMER 
M  END

$$$$



 34 34  0  0  0  0  0  0  0  0999 V2000
   -0.5748    2.7713   -1.0427 H   0  0  0  1  0  0  0  0  0  0  0  0
   -0.5596    0.7640   -0.3664 C   0  0  0  1  0  0  0  0  0  0  0  0
   -2.5072    2.0380   -1.1142 N   0  0  0  1  0  0  0  0  0  0  0  0
   -1.2118    2.1402   -0.4589 C   0  0  0  1  0  0  0  0  0  0  0  0
    0.6642    0.6422   -0.4000 O   0  0  0  1  0  0  0  0  0  0  0  0
   -1.3563   -0.3020   -0.2481 N   0  0  0  1  0  0  0  0  0  0  0  0
   -3.1338    1.3452   -0.8179 H   0  0  0  1  0  0  0  0  0  0  0  0
   -2.8749    2.8626   -2.1142 C   0  0  0  1  0  0  0  0  0  0  0  0
   -0.8442   -1.6636   -0.2896 C   0  0  0  1  0  0  0  0  0  0  0  0
   -4.1498    2.4379   -2.8167 C   0  0  0  1  0  0  0  0  0  0  0  0
   -2.2595    3.8707   -2.4510 O   0  0  0  1  0  0  0  0  0  0  0  0
   -2.3189   -0.1622   -0.1294 H   0  0  0  1  0  0  0  0  0  0  0  0
    0.1093   -1.6720   -0.7750 H   0  0  0  1  0  0  0  0  0  0  0  0
   -1.5260   -2.2844   -0.8324 H   0  0  0  1  0  0  0  0  0  0  0  0
   -0.7395   -2.0355    0.7082 H   0  0  0  1  0  0  0  0  0  0  0  0
   -4.8185    3.2710   -2.8779 H   0  0  0  1  0  0  0  0  0  0  0  0
   -4.6145    1.6476   -2.2650 H   0  0  0  1  0  0  0  0  0  0  0  0
   -3.9161    2.0954   -3.8031 H   0  0  0  1  0  0  0  0  0  0  0  0
   -1.3499    2.7596    0.9222 C   0  0  0  1  0  0  0  0  0  0  0  0
   -1.9393    4.1445    0.9524 C   0  0  0  1  0  0  0  0  0  0  0  0
   -1.0741    5.2190    0.8168 C   0  0  0  1  0  0  0  0  0  0  0  0
   -1.5666    6.5102    0.8435 C   0  0  0  1  0  0  0  0  0  0  0  0
   -2.9261    6.7305    1.0003 C   0  0  0  1  0  0  0  0  0  0  0  0
   -3.7885    5.6590    1.1355 C   0  0  0  1  0  0  0  0  0  0  0  0
   -3.2949    4.3640    1.1088 C   0  0  0  1  0  0  0  0  0  0  0  0
   -3.3370    8.0219    1.0118 O   0  0  0  1  0  0  0  0  0  0  0  0
   -0.7601    7.5923    0.7202 O   0  0  0  1  0  0  0  0  0  0  0  0
   -0.3755    2.8060    1.3621 H   0  0  0  1  0  0  0  0  0  0  0  0
   -1.9767    2.1213    1.5092 H   0  0  0  1  0  0  0  0  0  0  0  0
   -0.0545    5.0537    0.6951 H   0  0  0  1  0  0  0  0  0  0  0  0
   -4.8081    5.8244    1.2572 H   0  0  0  1  0  0  0  0  0  0  0  0
   -3.9444    3.5577    1.2064 H   0  0  0  1  0  0  0  0  0  0  0  0
   -3.7523    8.2334    0.1725 H   0  0  0  1  0  0  0  0  0  0  0  0
    0.1165    7.3096    0.4496 H   0  0  0  1  0  0  0  0  0  0  0  0
  1  4  1  0  0  0  0
  2  4  1  0  0  0  0
  2  5  2  0  0  0  0
  2  6  1  0  0  0  0
  3  4  1  0  0  0  0
  3  7  1  0  0  0  0
  3  8  1  0  0  0  0
  4 19  1  0  0  0  0
  6  9  1  0  0  0  0
  6 12  1  0  0  0  0
  8 10  1  0  0  0  0
  8 11  2  0  0  0  0
  9 13  1  0  0  0  0
  9 14  1  0  0  0  0
  9 15  1  0  0  0  0
 10 16  1  0  0  0  0
 10 17  1  0  0  0  0
 10 18  1  0  0  0  0
 19 20  1  0  0  0  0
 19 28  1  0  0  0  0
 19 29  1  0  0  0  0
 20 21  4  0  0  0  0
 20 25  4  0  0  0  0
 21 22  4  0  0  0  0
 21 30  1  0  0  0  0
 22 23  4  0  0  0  0
 22 27  1  0  0  0  0
 23 24  4  0  0  0  0
 23 26  1  0  0  0  0
 24 25  4  0  0  0  0
 24 31  1  0  0  0  0
 25 32  1  0  0  0  0
 26 33  1  0  0  0  0
 27 34  1  0  0  0  0
M  END
> <BCLConfClusterSize>
1

> <ConfClashScore>
0 

> <ConfOneFourInteractionScore>
-0.965014 

> <ConfScore>
0.0752978 

> <ConfScorePBest>
0.00347628 

> <ConfTolerance>
0.368522 

> <RosettaParamsInstructions>
M  ROOT 3
M  POLY_N_BB 3
M  POLY_CA_BB 4
M  POLY_C_BB 2
M  POLY_O_BB 5
M  POLY_IGNORE 9 10 11 12 13 14 15 16 17 18 
M  POLY_UPPER 6
M  POLY_LOWER 8
M  POLY_CHG 0
M  POLY_PROPERTIES ALPHA_AA L_AA PROTEIN AROMATIC POLYMER 
M  END

$$$$



 34 34  0  0  0  0  0  0  0  0999 V2000
   -2.1203    2.5996    3.2963 H   0  0  0  1  0  0  0  0  0  0  0  0
   -1.0468    0.7992    2.8903 C   0  0  0  1  0  0  0  0  0  0  0  0
   -0.0819    3.0257    3.2638 N   0  0  0  1  0  0  0  0  0  0  0  0
   -1.2420    2.3091    2.7586 C   0  0  0  1  0  0  0  0  0  0  0  0
   -1.9873    0.0656    3.1830 O   0  0  0  1  0  0  0  0  0  0  0  0
    0.1753    0.3030    2.6778 N   0  0  0  1  0  0  0  0  0  0  0  0
    0.7927    2.9379    2.8303 H   0  0  0  1  0  0  0  0  0  0  0  0
   -0.2429    3.8103    4.3401 C   0  0  0  1  0  0  0  0  0  0  0  0
    0.4485   -1.1297    2.6954 C   0  0  0  1  0  0  0  0  0  0  0  0
    1.0054    4.5156    4.8338 C   0  0  0  1  0  0  0  0  0  0  0  0
   -1.3258    3.9602    4.9037 O   0  0  0  1  0  0  0  0  0  0  0  0
    0.9140    0.9232    2.5041 H   0  0  0  1  0  0  0  0  0  0  0  0
    1.2143   -1.3561    1.9832 H   0  0  0  1  0  0  0  0  0  0  0  0
   -0.4427   -1.6655    2.4430 H   0  0  0  1  0  0  0  0  0  0  0  0
    0.7741   -1.4185    3.6729 H   0  0  0  1  0  0  0  0  0  0  0  0
    1.8128    3.8157    4.8894 H   0  0  0  1  0  0  0  0  0  0  0  0
    0.8223    4.9265    5.8046 H   0  0  0  1  0  0  0  0  0  0  0  0
    1.2620    5.3025    4.1555 H   0  0  0  1  0  0  0  0  0  0  0  0
   -1.4157    2.6655    1.2795 C   0  0  0  1  0  0  0  0  0  0  0  0
   -1.9397    4.0605    1.0666 C   0  0  0  1  0  0  0  0  0  0  0  0
   -1.0579    5.1051    0.8369 C   0  0  0  1  0  0  0  0  0  0  0  0
   -1.5396    6.3866    0.6468 C   0  0  0  1  0  0  0  0  0  0  0  0
   -2.9044    6.6264    0.6805 C   0  0  0  1  0  0  0  0  0  0  0  0
   -3.7834    5.5847    0.9095 C   0  0  0  1  0  0  0  0  0  0  0  0
   -3.3006    4.2994    1.1002 C   0  0  0  1  0  0  0  0  0  0  0  0
   -3.3037    7.9060    0.4807 O   0  0  0  1  0  0  0  0  0  0  0  0
   -0.7171    7.4406    0.4242 O   0  0  0  1  0  0  0  0  0  0  0  0
   -2.1031    1.9728    0.8407 H   0  0  0  1  0  0  0  0  0  0  0  0
   -0.4654    2.5810    0.7950 H   0  0  0  1  0  0  0  0  0  0  0  0
   -0.0341    4.9246    0.8075 H   0  0  0  1  0  0  0  0  0  0  0  0
   -4.8072    5.7652    0.9388 H   0  0  0  1  0  0  0  0  0  0  0  0
   -3.9623    3.5149    1.2685 H   0  0  0  1  0  0  0  0  0  0  0  0
   -2.6940    8.5041    0.9191 H   0  0  0  1  0  0  0  0  0  0  0  0
   -1.0195    8.1961    0.9335 H   0  0  0  1  0  0  0  0  0  0  0  0
  1  4  1  0  0  0  0
  2  4  1  0  0  0  0
  2  5  2  0  0  0  0
  2  6  1  0  0  0  0
  3  4  1  0  0  0  0
  3  7  1  0  0  0  0
  3  8  1  0  0  0  0
  4 19  1  0  0  0  0
  6  9  1  0  0  0  0
  6 12  1  0  0  0  0
  8 10  1  0  0  0  0
  8 11  2  0  0  0  0
  9 13  1  0  0  0  0
  9 14  1  0  0  0  0
  9 15  1  0  0  0  0
 10 16  1  0  0  0  0
 10 17  1  0  0  0  0
 10 18  1  0  0  0  0
 19 20  1  0  0  0  0
 19 28  1  0  0  0  0
 19 29  1  0  0  0  0
 20 21  4  0  0  0  0
 20 25  4  0  0  0  0
 21 22  4  0  0  0  0
 21 30  1  0  0  0  0
 22 23  4  0  0  0  0
 22 27  1  0  0  0  0
 23 24  4  0  0  0  0
 23 26  1  0  0  0  0
 24 25  4  0  0  0  0
 24 31  1  0  0  0  0
 25 32  1  0  0  0  0
 26 33  1  0  0  0  0
 27 34  1  0  0  0  0
M  END
> <BCLConfClusterSize>
1

> <ConfClashScore>
0 

> <ConfOneFourInteractionScore>
-0.952638 

> <ConfScore>
0.0771747 

> <ConfScorePBest>
0.0034478 

> <ConfTolerance>
0.554959 

> <RosettaParamsInstructions>
M  ROOT 3
M  POLY_N_BB 3
M  POLY_CA_BB 4
M  POLY_C_BB 2
M  POLY_O_BB 5
M  POLY_IGNORE 9 10 11 12 13 14 15 16 17 18 
M  POLY_UPPER 6
M  POLY_LOWER 8
M  POLY_CHG 0
M  POLY_PROPERTIES ALPHA_AA L_AA PROTEIN AROMATIC POLYMER 
M  END

$$$$



 34 34  0  0  0  0  0  0  0  0999 V2000
   -0.7616    2.9141   -1.0661 H   0  0  0  1  0  0  0  0  0  0  0  0
   -0.3077    0.9477   -0.4284 C   0  0  0  1  0  0  0  0  0  0  0  0
   -2.5249    1.9080   -0.8981 N   0  0  0  1  0  0  0  0  0  0  0  0
   -1.2095    2.1785   -0.4311 C   0  0  0  1  0  0  0  0  0  0  0  0
   -0.0212    0.3606    0.6141 O   0  0  0  1  0  0  0  0  0  0  0  0
    0.1221    0.5911   -1.6491 N   0  0  0  1  0  0  0  0  0  0  0  0
   -3.2347    1.8215   -0.2280 H   0  0  0  1  0  0  0  0  0  0  0  0
   -2.8635    1.7642   -2.1715 C   0  0  0  1  0  0  0  0  0  0  0  0
    1.0861   -0.4802   -1.8516 C   0  0  0  1  0  0  0  0  0  0  0  0
   -4.3919    1.5984   -2.4531 C   0  0  0  1  0  0  0  0  0  0  0  0
   -2.0561    1.7590   -3.0704 O   0  0  0  1  0  0  0  0  0  0  0  0
   -0.2253    1.0688   -2.4311 H   0  0  0  1  0  0  0  0  0  0  0  0
    2.0783   -0.0860   -1.7808 H   0  0  0  1  0  0  0  0  0  0  0  0
    0.9420   -0.9109   -2.8204 H   0  0  0  1  0  0  0  0  0  0  0  0
    0.9467   -1.2314   -1.1025 H   0  0  0  1  0  0  0  0  0  0  0  0
   -4.9271    2.4118   -2.0094 H   0  0  0  1  0  0  0  0  0  0  0  0
   -4.7337    0.6755   -2.0332 H   0  0  0  1  0  0  0  0  0  0  0  0
   -4.5613    1.5945   -3.5096 H   0  0  0  1  0  0  0  0  0  0  0  0
   -1.3368    2.7796    0.9625 C   0  0  0  1  0  0  0  0  0  0  0  0
   -1.9247    4.1639    0.9556 C   0  0  0  1  0  0  0  0  0  0  0  0
   -1.0999    5.2670    0.7996 C   0  0  0  1  0  0  0  0  0  0  0  0
   -1.6403    6.5391    0.7987 C   0  0  0  1  0  0  0  0  0  0  0  0
   -3.0075    6.7117    0.9485 C   0  0  0  1  0  0  0  0  0  0  0  0
   -3.8297    5.6117    1.1041 C   0  0  0  1  0  0  0  0  0  0  0  0
   -3.2880    4.3358    1.1050 C   0  0  0  1  0  0  0  0  0  0  0  0
   -3.5840    7.9382    0.9489 O   0  0  0  1  0  0  0  0  0  0  0  0
   -0.7731    7.5695    0.6468 O   0  0  0  1  0  0  0  0  0  0  0  0
   -0.3632    2.8252    1.4040 H   0  0  0  1  0  0  0  0  0  0  0  0
   -1.9663    2.1451    1.5508 H   0  0  0  1  0  0  0  0  0  0  0  0
   -0.0746    5.1374    0.6832 H   0  0  0  1  0  0  0  0  0  0  0  0
   -4.8550    5.7413    1.2205 H   0  0  0  1  0  0  0  0  0  0  0  0
   -3.9072    3.5079    1.2181 H   0  0  0  1  0  0  0  0  0  0  0  0
   -3.2857    8.4327    0.1821 H   0  0  0  1  0  0  0  0  0  0  0  0
    0.1271    7.2439    0.7187 H   0  0  0  1  0  0  0  0  0  0  0  0
  1  4  1  0  0  0  0
  2  4  1  0  0  0  0
  2  5  2  0  0  0  0
  2  6  1  0  0  0  0
  3  4  1  0  0  0  0
  3  7  1  0  0  0  0
  3  8  1  0  0  0  0
  4 19  1  0  0  0  0
  6  9  1  0  0  0  0
  6 12  1  0  0  0  0
  8 10  1  0  0  0  0
  8 11  2  0  0  0  0
  9 13  1  0  0  0  0
  9 14  1  0  0  0  0
  9 15  1  0  0  0  0
 10 16  1  0  0  0  0
 10 17  1  0  0  0  0
 10 18  1  0  0  0  0
 19 20  1  0  0  0  0
 19 28  1  0  0  0  0
 19 29  1  0  0  0  0
 20 21  4  0  0  0  0
 20 25  4  0  0  0  0
 21 22  4  0  0  0  0
 21 30  1  0  0  0  0
 22 23  4  0  0  0  0
 22 27  1  0  0  0  0
 23 24  4  0  0  0  0
 23 26  1  0  0  0  0
 24 25  4  0  0  0  0
 24 31  1  0  0  0  0
 25 32  1  0  0  0  0
 26 33  1  0  0  0  0
 27 34  1  0  0  0  0
M  END
> <BCLConfClusterSize>
1

> <ConfClashScore>
0 

> <ConfOneFourInteractionScore>
-0.975259 

> <ConfScore>
0.0841227 

> <ConfScorePBest>
0.00341932 

> <ConfTolerance>
0.494161 

> <RosettaParamsInstructions>
M  ROOT 3
M  POLY_N_BB 3
M  POLY_CA_BB 4
M  POLY_C_BB 2
M  POLY_O_BB 5
M  POLY_IGNORE 9 10 11 12 13 14 15 16 17 18 
M  POLY_UPPER 6
M  POLY_LOWER 8
M  POLY_CHG 0
M  POLY_PROPERTIES ALPHA_AA L_AA PROTEIN AROMATIC POLYMER 
M  END

$$$$



 34 34  0  0  0  0  0  0  0  0999 V2000
   -1.3897    0.9607    2.0771 H   0  0  0  1  0  0  0  0  0  0  0  0
   -1.3708    2.5855    3.4221 C   0  0  0  1  0  0  0  0  0  0  0  0
   -3.2954    1.7370    2.1048 N   0  0  0  1  0  0  0  0  0  0  0  0
   -1.8525    1.9238    2.1329 C   0  0  0  1  0  0  0  0  0  0  0  0
   -2.0888    3.3540    4.0594 O   0  0  0  1  0  0  0  0  0  0  0  0
   -0.1147    2.2438    3.7695 N   0  0  0  1  0  0  0  0  0  0  0  0
   -3.8802    2.3759    2.5634 H   0  0  0  1  0  0  0  0  0  0  0  0
   -3.8298    0.6861    1.4489 C   0  0  0  1  0  0  0  0  0  0  0  0
    0.5041    2.8345    4.9468 C   0  0  0  1  0  0  0  0  0  0  0  0
   -5.3323    0.5255    1.5753 C   0  0  0  1  0  0  0  0  0  0  0  0
   -3.1571   -0.1021    0.7857 O   0  0  0  1  0  0  0  0  0  0  0  0
    0.3833    1.5962    3.2282 H   0  0  0  1  0  0  0  0  0  0  0  0
   -0.1421    3.5852    5.3513 H   0  0  0  1  0  0  0  0  0  0  0  0
    1.4386    3.2782    4.6735 H   0  0  0  1  0  0  0  0  0  0  0  0
    0.6709    2.0743    5.6811 H   0  0  0  1  0  0  0  0  0  0  0  0
   -5.8193    1.3832    1.1605 H   0  0  0  1  0  0  0  0  0  0  0  0
   -5.5951    0.4313    2.6082 H   0  0  0  1  0  0  0  0  0  0  0  0
   -5.6428   -0.3512    1.0463 H   0  0  0  1  0  0  0  0  0  0  0  0
   -1.4025    2.7164    0.9017 C   0  0  0  1  0  0  0  0  0  0  0  0
   -1.9315    4.1350    0.9532 C   0  0  0  1  0  0  0  0  0  0  0  0
   -1.0538    5.2056    0.8824 C   0  0  0  1  0  0  0  0  0  0  0  0
   -1.5367    6.4995    0.9348 C   0  0  0  1  0  0  0  0  0  0  0  0
   -2.8990    6.7268    1.0530 C   0  0  0  1  0  0  0  0  0  0  0  0
   -3.7740    5.6593    1.1236 C   0  0  0  1  0  0  0  0  0  0  0  0
   -3.2899    4.3614    1.0710 C   0  0  0  1  0  0  0  0  0  0  0  0
   -3.4202    7.9768    1.1031 O   0  0  0  1  0  0  0  0  0  0  0  0
   -0.6583    7.5295    0.8690 O   0  0  0  1  0  0  0  0  0  0  0  0
   -1.7729    2.2357    0.0204 H   0  0  0  1  0  0  0  0  0  0  0  0
   -0.3332    2.7416    0.8722 H   0  0  0  1  0  0  0  0  0  0  0  0
   -0.0320    5.0352    0.7897 H   0  0  0  1  0  0  0  0  0  0  0  0
   -4.7957    5.8297    1.2163 H   0  0  0  1  0  0  0  0  0  0  0  0
   -3.9487    3.5582    1.1201 H   0  0  0  1  0  0  0  0  0  0  0  0
   -3.5948    8.2872    0.2116 H   0  0  0  1  0  0  0  0  0  0  0  0
   -0.1420    7.4592    0.0627 H   0  0  0  1  0  0  0  0  0  0  0  0
  1  4  1  0  0  0  0
  2  4  1  0  0  0  0
  2  5  2  0  0  0  0
  2  6  1  0  0  0  0
  3  4  1  0  0  0  0
  3  7  1  0  0  0  0
  3  8  1  0  0  0  0
  4 19  1  0  0  0  0
  6  9  1  0  0  0  0
  6 12  1  0  0  0  0
  8 10  1  0  0  0  0
  8 11  2  0  0  0  0
  9 13  1  0  0  0  0
  9 14  1  0  0  0  0
  9 15  1  0  0  0  0
 10 16  1  0  0  0  0
 10 17  1  0  0  0  0
 10 18  1  0  0  0  0
 19 20  1  0  0  0  0
 19 28  1  0  0  0  0
 19 29  1  0  0  0  0
 20 21  4  0  0  0  0
 20 25  4  0  0  0  0
 21 22  4  0  0  0  0
 21 30  1  0  0  0  0
 22 23  4  0  0  0  0
 22 27  1  0  0  0  0
 23 24  4  0  0  0  0
 23 26  1  0  0  0  0
 24 25  4  0  0  0  0
 24 31  1  0  0  0  0
 25 32  1  0  0  0  0
 26 33  1  0  0  0  0
 27 34  1  0  0  0  0
M  END
> <BCLConfClusterSize>
1

> <ConfClashScore>
0 

> <ConfOneFourInteractionScore>
-0.987258 

> <ConfScore>
0.0848061 

> <ConfScorePBest>
0.00339084 

> <ConfTolerance>
0.633681 

> <RosettaParamsInstructions>
M  ROOT 3
M  POLY_N_BB 3
M  POLY_CA_BB 4
M  POLY_C_BB 2
M  POLY_O_BB 5
M  POLY_IGNORE 9 10 11 12 13 14 15 16 17 18 
M  POLY_UPPER 6
M  POLY_LOWER 8
M  POLY_CHG 0
M  POLY_PROPERTIES ALPHA_AA L_AA PROTEIN AROMATIC POLYMER 
M  END

$$$$



 34 34  0  0  0  0  0  0  0  0999 V2000
   -2.1287    2.1045   -0.9904 H   0  0  0  1  0  0  0  0  0  0  0  0
   -0.2810    3.1111   -1.2346 C   0  0  0  1  0  0  0  0  0  0  0  0
   -0.6022    0.8192   -0.4476 N   0  0  0  1  0  0  0  0  0  0  0  0
   -1.1913    2.1496   -0.4764 C   0  0  0  1  0  0  0  0  0  0  0  0
    0.9205    2.8879   -1.3577 O   0  0  0  1  0  0  0  0  0  0  0  0
   -0.8759    4.1931   -1.7450 N   0  0  0  1  0  0  0  0  0  0  0  0
    0.3669    0.7492   -0.3201 H   0  0  0  1  0  0  0  0  0  0  0  0
   -1.2985   -0.3129   -0.5839 C   0  0  0  1  0  0  0  0  0  0  0  0
   -0.1407    5.2092   -2.4831 C   0  0  0  1  0  0  0  0  0  0  0  0
   -0.4724   -1.5828   -0.7429 C   0  0  0  1  0  0  0  0  0  0  0  0
   -2.5262   -0.3471   -0.5834 O   0  0  0  1  0  0  0  0  0  0  0  0
   -1.8410    4.3063   -1.6179 H   0  0  0  1  0  0  0  0  0  0  0  0
    0.8458    5.3005   -2.0789 H   0  0  0  1  0  0  0  0  0  0  0  0
   -0.6483    6.1474   -2.3997 H   0  0  0  1  0  0  0  0  0  0  0  0
   -0.0790    4.9267   -3.5133 H   0  0  0  1  0  0  0  0  0  0  0  0
   -0.1997   -1.7052   -1.7703 H   0  0  0  1  0  0  0  0  0  0  0  0
   -1.0496   -2.4257   -0.4245 H   0  0  0  1  0  0  0  0  0  0  0  0
    0.4123   -1.5096   -0.1456 H   0  0  0  1  0  0  0  0  0  0  0  0
   -1.4528    2.6624    0.9421 C   0  0  0  1  0  0  0  0  0  0  0  0
   -1.9399    4.0864    0.9739 C   0  0  0  1  0  0  0  0  0  0  0  0
   -1.0321    5.1317    0.9039 C   0  0  0  1  0  0  0  0  0  0  0  0
   -1.4797    6.4389    0.9386 C   0  0  0  1  0  0  0  0  0  0  0  0
   -2.8365    6.7047    1.0379 C   0  0  0  1  0  0  0  0  0  0  0  0
   -3.7414    5.6624    1.1077 C   0  0  0  1  0  0  0  0  0  0  0  0
   -3.2928    4.3513    1.0730 C   0  0  0  1  0  0  0  0  0  0  0  0
   -3.2510    7.9947    1.0648 O   0  0  0  1  0  0  0  0  0  0  0  0
   -0.5352    7.4084    0.8712 O   0  0  0  1  0  0  0  0  0  0  0  0
   -0.5416    2.6016    1.4996 H   0  0  0  1  0  0  0  0  0  0  0  0
   -2.1931    2.0390    1.3985 H   0  0  0  1  0  0  0  0  0  0  0  0
   -0.0145    4.9323    0.8253 H   0  0  0  1  0  0  0  0  0  0  0  0
   -4.7591    5.8618    1.1863 H   0  0  0  1  0  0  0  0  0  0  0  0
   -3.9741    3.5670    1.1214 H   0  0  0  1  0  0  0  0  0  0  0  0
   -3.5182    8.2639    0.1829 H   0  0  0  1  0  0  0  0  0  0  0  0
   -0.6519    7.9139    0.0634 H   0  0  0  1  0  0  0  0  0  0  0  0
  1  4  1  0  0  0  0
  2  4  1  0  0  0  0
  2  5  2  0  0  0  0
  2  6  1  0  0  0  0
  3  4  1  0  0  0  0
  3  7  1  0  0  0  0
  3  8  1  0  0  0  0
  4 19  1  0  0  0  0
  6  9  1  0  0  0  0
  6 12  1  0  0  0  0
  8 10  1  0  0  0  0
  8 11  2  0  0  0  0
  9 13  1  0  0  0  0
  9 14  1  0  0  0  0
  9 15  1  0  0  0  0
 10 16  1  0  0  0  0
 10 17  1  0  0  0  0
 10 18  1  0  0  0  0
 19 20  1  0  0  0  0
 19 28  1  0  0  0  0
 19 29  1  0  0  0  0
 20 21  4  0  0  0  0
 20 25  4  0  0  0  0
 21 22  4  0  0  0  0
 21 30  1  0  0  0  0
 22 23  4  0  0  0  0
 22 27  1  0  0  0  0
 23 24  4  0  0  0  0
 23 26  1  0  0  0  0
 24 25  4  0  0  0  0
 24 31  1  0  0  0  0
 25 32  1  0  0  0  0
 26 33  1  0  0  0  0
 27 34  1  0  0  0  0
M  END
> <BCLConfClusterSize>
1

> <ConfClashScore>
0 

> <ConfOneFourInteractionScore>
-0.986627 

> <ConfScore>
0.0881096 

> <ConfScorePBest>
0.00336236 

> <ConfTolerance>
0.531673 

> <RosettaParamsInstructions>
M  ROOT 3
M  POLY_N_BB 3
M  POLY_CA_BB 4
M  POLY_C_BB 2
M  POLY_O_BB 5
M  POLY_IGNORE 9 10 11 12 13 14 15 16 17 18 
M  POLY_UPPER 6
M  POLY_LOWER 8
M  POLY_CHG 0
M  POLY_PROPERTIES ALPHA_AA L_AA PROTEIN AROMATIC POLYMER 
M  END

$$$$



 34 34  0  0  0  0  0  0  0  0999 V2000
   -0.3739    1.5109    2.7138 H   0  0  0  1  0  0  0  0  0  0  0  0
    0.2623    3.5022    2.8876 C   0  0  0  1  0  0  0  0  0  0  0  0
   -1.8479    2.5303    3.7239 N   0  0  0  1  0  0  0  0  0  0  0  0
   -0.8310    2.4779    2.6842 C   0  0  0  1  0  0  0  0  0  0  0  0
    0.0511    4.5886    3.3952 O   0  0  0  1  0  0  0  0  0  0  0  0
    1.5065    3.2100    2.4983 N   0  0  0  1  0  0  0  0  0  0  0  0
   -2.2419    3.3969    3.9568 H   0  0  0  1  0  0  0  0  0  0  0  0
   -2.2629    1.4382    4.3720 C   0  0  0  1  0  0  0  0  0  0  0  0
    2.6162    4.1329    2.6842 C   0  0  0  1  0  0  0  0  0  0  0  0
   -3.4510    1.6311    5.2942 C   0  0  0  1  0  0  0  0  0  0  0  0
   -1.7280    0.3380    4.2416 O   0  0  0  1  0  0  0  0  0  0  0  0
    1.6778    2.3440    2.0727 H   0  0  0  1  0  0  0  0  0  0  0  0
    2.5112    4.6330    3.6243 H   0  0  0  1  0  0  0  0  0  0  0  0
    2.6155    4.8549    1.8944 H   0  0  0  1  0  0  0  0  0  0  0  0
    3.5378    3.5895    2.6706 H   0  0  0  1  0  0  0  0  0  0  0  0
   -3.1044    1.8154    6.2896 H   0  0  0  1  0  0  0  0  0  0  0  0
   -4.0562    0.7488    5.2852 H   0  0  0  1  0  0  0  0  0  0  0  0
   -4.0309    2.4654    4.9586 H   0  0  0  1  0  0  0  0  0  0  0  0
   -1.4824    2.6290    1.3057 C   0  0  0  1  0  0  0  0  0  0  0  0
   -1.9391    4.0558    1.0809 C   0  0  0  1  0  0  0  0  0  0  0  0
   -1.0046    5.0591    0.8764 C   0  0  0  1  0  0  0  0  0  0  0  0
   -1.4217    6.3615    0.6767 C   0  0  0  1  0  0  0  0  0  0  0  0
   -2.7746    6.6637    0.6756 C   0  0  0  1  0  0  0  0  0  0  0  0
   -3.7061    5.6633    0.8795 C   0  0  0  1  0  0  0  0  0  0  0  0
   -3.2880    4.3570    1.0798 C   0  0  0  1  0  0  0  0  0  0  0  0
   -3.2758    7.9081    0.4833 O   0  0  0  1  0  0  0  0  0  0  0  0
   -0.5463    7.3767    0.4778 O   0  0  0  1  0  0  0  0  0  0  0  0
   -2.3280    1.9762    1.2439 H   0  0  0  1  0  0  0  0  0  0  0  0
   -0.7715    2.3651    0.5509 H   0  0  0  1  0  0  0  0  0  0  0  0
    0.0103    4.8317    0.8733 H   0  0  0  1  0  0  0  0  0  0  0  0
   -4.7210    5.8907    0.8826 H   0  0  0  1  0  0  0  0  0  0  0  0
   -3.9892    3.6036    1.2292 H   0  0  0  1  0  0  0  0  0  0  0  0
   -3.3179    8.3700    1.3238 H   0  0  0  1  0  0  0  0  0  0  0  0
   -1.0229    8.2095    0.4475 H   0  0  0  1  0  0  0  0  0  0  0  0
  1  4  1  0  0  0  0
  2  4  1  0  0  0  0
  2  5  2  0  0  0  0
  2  6  1  0  0  0  0
  3  4  1  0  0  0  0
  3  7  1  0  0  0  0
  3  8  1  0  0  0  0
  4 19  1  0  0  0  0
  6  9  1  0  0  0  0
  6 12  1  0  0  0  0
  8 10  1  0  0  0  0
  8 11  2  0  0  0  0
  9 13  1  0  0  0  0
  9 14  1  0  0  0  0
  9 15  1  0  0  0  0
 10 16  1  0  0  0  0
 10 17  1  0  0  0  0
 10 18  1  0  0  0  0
 19 20  1  0  0  0  0
 19 28  1  0  0  0  0
 19 29  1  0  0  0  0
 20 21  4  0  0  0  0
 20 25  4  0  0  0  0
 21 22  4  0  0  0  0
 21 30  1  0  0  0  0
 22 23  4  0  0  0  0
 22 27  1  0  0  0  0
 23 24  4  0  0  0  0
 23 26  1  0  0  0  0
 24 25  4  0  0  0  0
 24 31  1  0  0  0  0
 25 32  1  0  0  0  0
 26 33  1  0  0  0  0
 27 34  1  0  0  0  0
M  END
> <BCLConfClusterSize>
1

> <ConfClashScore>
0 

> <ConfOneFourInteractionScore>
-0.987258 

> <ConfScore>
0.0903874 

> <ConfScorePBest>
0.00333388 

> <ConfTolerance>
0.895337 

> <RosettaParamsInstructions>
M  ROOT 3
M  POLY_N_BB 3
M  POLY_CA_BB 4
M  POLY_C_BB 2
M  POLY_O_BB 5
M  POLY_IGNORE 9 10 11 12 13 14 15 16 17 18 
M  POLY_UPPER 6
M  POLY_LOWER 8
M  POLY_CHG 0
M  POLY_PROPERTIES ALPHA_AA L_AA PROTEIN AROMATIC POLYMER 
M  END

$$$$



 34 34  0  0  0  0  0  0  0  0999 V2000
   -3.1771    2.0119    0.3211 H   0  0  0  1  0  0  0  0  0  0  0  0
   -1.5688    1.7455   -1.0267 C   0  0  0  1  0  0  0  0  0  0  0  0
   -2.1123    0.3382    0.8802 N   0  0  0  1  0  0  0  0  0  0  0  0
   -2.1536    1.7070    0.3877 C   0  0  0  1  0  0  0  0  0  0  0  0
   -0.8007    0.8420   -1.3544 O   0  0  0  1  0  0  0  0  0  0  0  0
   -1.9465    2.7703   -1.7962 N   0  0  0  1  0  0  0  0  0  0  0  0
   -1.6119    0.1269    1.6959 H   0  0  0  1  0  0  0  0  0  0  0  0
   -2.7579   -0.6351    0.2198 C   0  0  0  1  0  0  0  0  0  0  0  0
   -1.4378    2.9570   -3.1476 C   0  0  0  1  0  0  0  0  0  0  0  0
   -2.4983   -2.0469    0.7084 C   0  0  0  1  0  0  0  0  0  0  0  0
   -3.5146   -0.4158   -0.7224 O   0  0  0  1  0  0  0  0  0  0  0  0
   -2.5882    3.4189   -1.4386 H   0  0  0  1  0  0  0  0  0  0  0  0
   -0.4924    2.4653   -3.2445 H   0  0  0  1  0  0  0  0  0  0  0  0
   -1.3175    4.0023   -3.3419 H   0  0  0  1  0  0  0  0  0  0  0  0
   -2.1297    2.5406   -3.8496 H   0  0  0  1  0  0  0  0  0  0  0  0
   -2.9902   -2.1962    1.6468 H   0  0  0  1  0  0  0  0  0  0  0  0
   -1.4455   -2.1938    0.8305 H   0  0  0  1  0  0  0  0  0  0  0  0
   -2.8760   -2.7468   -0.0074 H   0  0  0  1  0  0  0  0  0  0  0  0
   -1.4360    2.7011    1.3044 C   0  0  0  1  0  0  0  0  0  0  0  0
   -1.9296    4.1024    1.0625 C   0  0  0  1  0  0  0  0  0  0  0  0
   -1.0297    5.1122    0.7590 C   0  0  0  1  0  0  0  0  0  0  0  0
   -1.4832    6.3997    0.5423 C   0  0  0  1  0  0  0  0  0  0  0  0
   -2.8382    6.6802    0.6231 C   0  0  0  1  0  0  0  0  0  0  0  0
   -3.7353    5.6734    0.9257 C   0  0  0  1  0  0  0  0  0  0  0  0
   -3.2808    4.3820    1.1431 C   0  0  0  1  0  0  0  0  0  0  0  0
   -3.2587    7.9494    0.4013 O   0  0  0  1  0  0  0  0  0  0  0  0
   -0.6419    7.4207    0.2481 O   0  0  0  1  0  0  0  0  0  0  0  0
   -0.3845    2.6611    1.1103 H   0  0  0  1  0  0  0  0  0  0  0  0
   -1.6213    2.4349    2.3240 H   0  0  0  1  0  0  0  0  0  0  0  0
   -0.0134    4.9009    0.6944 H   0  0  0  1  0  0  0  0  0  0  0  0
   -4.7516    5.8846    0.9903 H   0  0  0  1  0  0  0  0  0  0  0  0
   -3.9563    3.6236    1.3668 H   0  0  0  1  0  0  0  0  0  0  0  0
   -3.7267    8.2717    1.1751 H   0  0  0  1  0  0  0  0  0  0  0  0
   -0.3979    7.8779    1.0562 H   0  0  0  1  0  0  0  0  0  0  0  0
  1  4  1  0  0  0  0
  2  4  1  0  0  0  0
  2  5  2  0  0  0  0
  2  6  1  0  0  0  0
  3  4  1  0  0  0  0
  3  7  1  0  0  0  0
  3  8  1  0  0  0  0
  4 19  1  0  0  0  0
  6  9  1  0  0  0  0
  6 12  1  0  0  0  0
  8 10  1  0  0  0  0
  8 11  2  0  0  0  0
  9 13  1  0  0  0  0
  9 14  1  0  0  0  0
  9 15  1  0  0  0  0
 10 16  1  0  0  0  0
 10 17  1  0  0  0  0
 10 18  1  0  0  0  0
 19 20  1  0  0  0  0
 19 28  1  0  0  0  0
 19 29  1  0  0  0  0
 20 21  4  0  0  0  0
 20 25  4  0  0  0  0
 21 22  4  0  0  0  0
 21 30  1  0  0  0  0
 22 23  4  0  0  0  0
 22 27  1  0  0  0  0
 23 24  4  0  0  0  0
 23 26  1  0  0  0  0
 24 25  4  0  0  0  0
 24 31  1  0  0  0  0
 25 32  1  0  0  0  0
 26 33  1  0  0  0  0
 27 34  1  0  0  0  0
M  END
> <BCLConfClusterSize>
1

> <ConfClashScore>
0 

> <ConfOneFourInteractionScore>
-0.982002 

> <ConfScore>
0.0958723 

> <ConfScorePBest>
0.0033054 

> <ConfTolerance>
0.823313 

> <RosettaParamsInstructions>
M  ROOT 3
M  POLY_N_BB 3
M  POLY_CA_BB 4
M  POLY_C_BB 2
M  POLY_O_BB 5
M  POLY_IGNORE 9 10 11 12 13 14 15 16 17 18 
M  POLY_UPPER 6
M  POLY_LOWER 8
M  POLY_CHG 0
M  POLY_PROPERTIES ALPHA_AA L_AA PROTEIN AROMATIC POLYMER 
M  END

$$$$



 34 34  0  0  0  0  0  0  0  0999 V2000
   -1.4670    2.6374   -0.9550 H   0  0  0  1  0  0  0  0  0  0  0  0
   -0.5576    0.8428   -0.3505 C   0  0  0  1  0  0  0  0  0  0  0  0
   -2.9776    1.4165   -0.2426 N   0  0  0  1  0  0  0  0  0  0  0  0
   -1.6019    1.9214   -0.1714 C   0  0  0  1  0  0  0  0  0  0  0  0
    0.6314    1.0813   -0.2046 O   0  0  0  1  0  0  0  0  0  0  0  0
   -1.0244   -0.3724   -0.6753 N   0  0  0  1  0  0  0  0  0  0  0  0
   -3.4434    1.1940    0.5904 H   0  0  0  1  0  0  0  0  0  0  0  0
   -3.6208    1.2488   -1.4096 C   0  0  0  1  0  0  0  0  0  0  0  0
   -0.1470   -1.5189   -0.8584 C   0  0  0  1  0  0  0  0  0  0  0  0
   -5.0551    0.7461   -1.3084 C   0  0  0  1  0  0  0  0  0  0  0  0
   -3.1052    1.4792   -2.4917 O   0  0  0  1  0  0  0  0  0  0  0  0
   -1.9899   -0.4922   -0.7932 H   0  0  0  1  0  0  0  0  0  0  0  0
    0.7298   -1.3973   -0.2572 H   0  0  0  1  0  0  0  0  0  0  0  0
    0.1342   -1.5916   -1.8882 H   0  0  0  1  0  0  0  0  0  0  0  0
   -0.6598   -2.4108   -0.5644 H   0  0  0  1  0  0  0  0  0  0  0  0
   -5.5419    1.2192   -0.4813 H   0  0  0  1  0  0  0  0  0  0  0  0
   -5.0518   -0.3137   -1.1614 H   0  0  0  1  0  0  0  0  0  0  0  0
   -5.5793    0.9797   -2.2115 H   0  0  0  1  0  0  0  0  0  0  0  0
   -1.4715    2.6673    1.1596 C   0  0  0  1  0  0  0  0  0  0  0  0
   -1.9352    4.1023    1.0187 C   0  0  0  1  0  0  0  0  0  0  0  0
   -1.0183    5.1031    0.7373 C   0  0  0  1  0  0  0  0  0  0  0  0
   -1.4414    6.4131    0.6141 C   0  0  0  1  0  0  0  0  0  0  0  0
   -2.7833    6.7254    0.7666 C   0  0  0  1  0  0  0  0  0  0  0  0
   -3.6974    5.7275    1.0472 C   0  0  0  1  0  0  0  0  0  0  0  0
   -3.2732    4.4136    1.1708 C   0  0  0  1  0  0  0  0  0  0  0  0
   -3.1742    8.0165    0.6360 O   0  0  0  1  0  0  0  0  0  0  0  0
   -0.4888    7.3384    0.3437 O   0  0  0  1  0  0  0  0  0  0  0  0
   -0.4469    2.6584    1.4679 H   0  0  0  1  0  0  0  0  0  0  0  0
   -2.0707    2.1758    1.8974 H   0  0  0  1  0  0  0  0  0  0  0  0
   -0.0121    4.8683    0.6189 H   0  0  0  1  0  0  0  0  0  0  0  0
   -4.7036    5.9623    1.1656 H   0  0  0  1  0  0  0  0  0  0  0  0
   -3.9617    3.6621    1.3779 H   0  0  0  1  0  0  0  0  0  0  0  0
   -4.1286    8.0541    0.5394 H   0  0  0  1  0  0  0  0  0  0  0  0
   -0.3897    7.9257    1.0966 H   0  0  0  1  0  0  0  0  0  0  0  0
  1  4  1  0  0  0  0
  2  4  1  0  0  0  0
  2  5  2  0  0  0  0
  2  6  1  0  0  0  0
  3  4  1  0  0  0  0
  3  7  1  0  0  0  0
  3  8  1  0  0  0  0
  4 19  1  0  0  0  0
  6  9  1  0  0  0  0
  6 12  1  0  0  0  0
  8 10  1  0  0  0  0
  8 11  2  0  0  0  0
  9 13  1  0  0  0  0
  9 14  1  0  0  0  0
  9 15  1  0  0  0  0
 10 16  1  0  0  0  0
 10 17  1  0  0  0  0
 10 18  1  0  0  0  0
 19 20  1  0  0  0  0
 19 28  1  0  0  0  0
 19 29  1  0  0  0  0
 20 21  4  0  0  0  0
 20 25  4  0  0  0  0
 21 22  4  0  0  0  0
 21 30  1  0  0  0  0
 22 23  4  0  0  0  0
 22 27  1  0  0  0  0
 23 24  4  0  0  0  0
 23 26  1  0  0  0  0
 24 25  4  0  0  0  0
 24 31  1  0  0  0  0
 25 32  1  0  0  0  0
 26 33  1  0  0  0  0
 27 34  1  0  0  0  0
M  END
> <BCLConfClusterSize>
1

> <ConfClashScore>
0 

> <ConfOneFourInteractionScore>
-0.948834 

> <ConfScore>
0.0986444 

> <ConfScorePBest>
0.00327691 

> <ConfTolerance>
0.658019 

> <RosettaParamsInstructions>
M  ROOT 3
M  POLY_N_BB 3
M  POLY_CA_BB 4
M  POLY_C_BB 2
M  POLY_O_BB 5
M  POLY_IGNORE 9 10 11 12 13 14 15 16 17 18 
M  POLY_UPPER 6
M  POLY_LOWER 8
M  POLY_CHG 0
M  POLY_PROPERTIES ALPHA_AA L_AA PROTEIN AROMATIC POLYMER 
M  END

$$$$



 34 34  0  0  0  0  0  0  0  0999 V2000
   -3.0212    1.8655    2.2348 H   0  0  0  1  0  0  0  0  0  0  0  0
   -3.5910    1.4284    0.2652 C   0  0  0  1  0  0  0  0  0  0  0  0
   -1.9321    0.2436    1.6041 N   0  0  0  1  0  0  0  0  0  0  0  0
   -2.5174    1.5611    1.3412 C   0  0  0  1  0  0  0  0  0  0  0  0
   -3.3056    1.0933   -0.8832 O   0  0  0  1  0  0  0  0  0  0  0  0
   -4.8381    1.6976    0.6545 N   0  0  0  1  0  0  0  0  0  0  0  0
   -1.2375   -0.0942    1.0009 H   0  0  0  1  0  0  0  0  0  0  0  0
   -2.3124   -0.5131    2.6374 C   0  0  0  1  0  0  0  0  0  0  0  0
   -5.9909    1.6922   -0.2337 C   0  0  0  1  0  0  0  0  0  0  0  0
   -1.8317   -1.9617    2.5904 C   0  0  0  1  0  0  0  0  0  0  0  0
   -3.0561   -0.1213    3.5347 O   0  0  0  1  0  0  0  0  0  0  0  0
   -4.9875    1.9128    1.5989 H   0  0  0  1  0  0  0  0  0  0  0  0
   -5.6991    2.0480   -1.1997 H   0  0  0  1  0  0  0  0  0  0  0  0
   -6.7518    2.3296    0.1660 H   0  0  0  1  0  0  0  0  0  0  0  0
   -6.3693    0.6952   -0.3204 H   0  0  0  1  0  0  0  0  0  0  0  0
   -2.5264   -2.5505    2.0285 H   0  0  0  1  0  0  0  0  0  0  0  0
   -1.7620   -2.3466    3.5863 H   0  0  0  1  0  0  0  0  0  0  0  0
   -0.8699   -2.0031    2.1233 H   0  0  0  1  0  0  0  0  0  0  0  0
   -1.4794    2.6210    1.0563 C   0  0  0  1  0  0  0  0  0  0  0  0
   -1.9430    4.0505    0.9977 C   0  0  0  1  0  0  0  0  0  0  0  0
   -1.0240    5.0704    0.8055 C   0  0  0  1  0  0  0  0  0  0  0  0
   -1.4502    6.3843    0.7571 C   0  0  0  1  0  0  0  0  0  0  0  0
   -2.7969    6.6819    0.8955 C   0  0  0  1  0  0  0  0  0  0  0  0
   -3.7130    5.6649    1.0872 C   0  0  0  1  0  0  0  0  0  0  0  0
   -3.2859    4.3471    1.1357 C   0  0  0  1  0  0  0  0  0  0  0  0
   -3.3065    7.9371    0.8564 O   0  0  0  1  0  0  0  0  0  0  0  0
   -0.5895    7.4155    0.5764 O   0  0  0  1  0  0  0  0  0  0  0  0
   -1.0364    2.3891    0.1103 H   0  0  0  1  0  0  0  0  0  0  0  0
   -0.7368    2.5564    1.8239 H   0  0  0  1  0  0  0  0  0  0  0  0
   -0.0141    4.8469    0.6976 H   0  0  0  1  0  0  0  0  0  0  0  0
   -4.7230    5.8885    1.1950 H   0  0  0  1  0  0  0  0  0  0  0  0
   -3.9758    3.5816    1.2759 H   0  0  0  1  0  0  0  0  0  0  0  0
   -3.2341    8.2847   -0.0355 H   0  0  0  1  0  0  0  0  0  0  0  0
   -0.9439    8.2052    0.9914 H   0  0  0  1  0  0  0  0  0  0  0  0
  1  4  1  0  0  0  0
  2  4  1  0  0  0  0
  2  5  2  0  0  0  0
  2  6  1  0  0  0  0
  3  4  1  0  0  0  0
  3  7  1  0  0  0  0
  3  8  1  0  0  0  0
  4 19  1  0  0  0  0
  6  9  1  0  0  0  0
  6 12  1  0  0  0  0
  8 10  1  0  0  0  0
  8 11  2  0  0  0  0
  9 13  1  0  0  0  0
  9 14  1  0  0  0  0
  9 15  1  0  0  0  0
 10 16  1  0  0  0  0
 10 17  1  0  0  0  0
 10 18  1  0  0  0  0
 19 20  1  0  0  0  0
 19 28  1  0  0  0  0
 19 29  1  0  0  0  0
 20 21  4  0  0  0  0
 20 25  4  0  0  0  0
 21 22  4  0  0  0  0
 21 30  1  0  0  0  0
 22 23  4  0  0  0  0
 22 27  1  0  0  0  0
 23 24  4  0  0  0  0
 23 26  1  0  0  0  0
 24 25  4  0  0  0  0
 24 31  1  0  0  0  0
 25 32  1  0  0  0  0
 26 33  1  0  0  0  0
 27 34  1  0  0  0  0
M  END
> <BCLConfClusterSize>
1

> <ConfClashScore>
0 

> <ConfOneFourInteractionScore>
-0.970686 

> <ConfScore>
0.103695 

> <ConfScorePBest>
0.00324843 

> <ConfTolerance>
1.05991 

> <RosettaParamsInstructions>
M  ROOT 3
M  POLY_N_BB 3
M  POLY_CA_BB 4
M  POLY_C_BB 2
M  POLY_O_BB 5
M  POLY_IGNORE 9 10 11 12 13 14 15 16 17 18 
M  POLY_UPPER 6
M  POLY_LOWER 8
M  POLY_CHG 0
M  POLY_PROPERTIES ALPHA_AA L_AA PROTEIN AROMATIC POLYMER 
M  END

$$$$



 34 34  0  0  0  0  0  0  0  0999 V2000
   -0.3107    1.5458    2.4292 H   0  0  0  1  0  0  0  0  0  0  0  0
    0.9331    3.2006    2.2352 C   0  0  0  1  0  0  0  0  0  0  0  0
   -1.1876    3.0356    3.5237 N   0  0  0  1  0  0  0  0  0  0  0  0
   -0.4624    2.5988    2.3143 C   0  0  0  1  0  0  0  0  0  0  0  0
    1.7013    2.9471    1.3257 O   0  0  0  1  0  0  0  0  0  0  0  0
    1.3340    4.0364    3.1944 N   0  0  0  1  0  0  0  0  0  0  0  0
   -1.8015    3.7943    3.4346 H   0  0  0  1  0  0  0  0  0  0  0  0
   -1.0699    2.4747    4.7306 C   0  0  0  1  0  0  0  0  0  0  0  0
    2.6594    4.6311    3.2809 C   0  0  0  1  0  0  0  0  0  0  0  0
   -2.0082    2.9786    5.8276 C   0  0  0  1  0  0  0  0  0  0  0  0
   -0.1980    1.6499    4.9912 O   0  0  0  1  0  0  0  0  0  0  0  0
    0.6872    4.2675    3.8934 H   0  0  0  1  0  0  0  0  0  0  0  0
    3.3898    3.9266    2.9415 H   0  0  0  1  0  0  0  0  0  0  0  0
    2.8654    4.8964    4.2968 H   0  0  0  1  0  0  0  0  0  0  0  0
    2.6977    5.5073    2.6681 H   0  0  0  1  0  0  0  0  0  0  0  0
   -2.8503    3.4651    5.3815 H   0  0  0  1  0  0  0  0  0  0  0  0
   -1.4856    3.6722    6.4526 H   0  0  0  1  0  0  0  0  0  0  0  0
   -2.3452    2.1510    6.4162 H   0  0  0  1  0  0  0  0  0  0  0  0
   -1.3060    2.7451    1.0514 C   0  0  0  1  0  0  0  0  0  0  0  0
   -1.9421    4.1198    0.9860 C   0  0  0  1  0  0  0  0  0  0  0  0
   -1.1112    5.2075    0.7674 C   0  0  0  1  0  0  0  0  0  0  0  0
   -1.6430    6.4817    0.7051 C   0  0  0  1  0  0  0  0  0  0  0  0
   -3.0078    6.6714    0.8559 C   0  0  0  1  0  0  0  0  0  0  0  0
   -3.8362    5.5868    1.0739 C   0  0  0  1  0  0  0  0  0  0  0  0
   -3.3030    4.3087    1.1364 C   0  0  0  1  0  0  0  0  0  0  0  0
   -3.4583    7.9472    0.7778 O   0  0  0  1  0  0  0  0  0  0  0  0
   -0.8709    7.5762    0.4986 O   0  0  0  1  0  0  0  0  0  0  0  0
   -2.0759    2.0021    1.0558 H   0  0  0  1  0  0  0  0  0  0  0  0
   -0.6810    2.6066    0.1940 H   0  0  0  1  0  0  0  0  0  0  0  0
   -0.0877    5.0649    0.6502 H   0  0  0  1  0  0  0  0  0  0  0  0
   -4.8597    5.7294    1.1911 H   0  0  0  1  0  0  0  0  0  0  0  0
   -3.9269    3.4922    1.2965 H   0  0  0  1  0  0  0  0  0  0  0  0
   -2.9394    8.4312    0.1311 H   0  0  0  1  0  0  0  0  0  0  0  0
   -0.1871    7.6175    1.1710 H   0  0  0  1  0  0  0  0  0  0  0  0
  1  4  1  0  0  0  0
  2  4  1  0  0  0  0
  2  5  2  0  0  0  0
  2  6  1  0  0  0  0
  3  4  1  0  0  0  0
  3  7  1  0  0  0  0
  3  8  1  0  0  0  0
  4 19  1  0  0  0  0
  6  9  1  0  0  0  0
  6 12  1  0  0  0  0
  8 10  1  0  0  0  0
  8 11  2  0  0  0  0
  9 13  1  0  0  0  0
  9 14  1  0  0  0  0
  9 15  1  0  0  0  0
 10 16  1  0  0  0  0
 10 17  1  0  0  0  0
 10 18  1  0  0  0  0
 19 20  1  0  0  0  0
 19 28  1  0  0  0  0
 19 29  1  0  0  0  0
 20 21  4  0  0  0  0
 20 25  4  0  0  0  0
 21 22  4  0  0  0  0
 21 30  1  0  0  0  0
 22 23  4  0  0  0  0
 22 27  1  0  0  0  0
 23 24  4  0  0  0  0
 23 26  1  0  0  0  0
 24 25  4  0  0  0  0
 24 31  1  0  0  0  0
 25 32  1  0  0  0  0
 26 33  1  0  0  0  0
 27 34  1  0  0  0  0
M  END
> <BCLConfClusterSize>
1

> <ConfClashScore>
0 

> <ConfOneFourInteractionScore>
-0.931937 

> <ConfScore>
0.106594 

> <ConfScorePBest>
0.00321995 

> <ConfTolerance>
0.747657 

> <RosettaParamsInstructions>
M  ROOT 3
M  POLY_N_BB 3
M  POLY_CA_BB 4
M  POLY_C_BB 2
M  POLY_O_BB 5
M  POLY_IGNORE 9 10 11 12 13 14 15 16 17 18 
M  POLY_UPPER 6
M  POLY_LOWER 8
M  POLY_CHG 0
M  POLY_PROPERTIES ALPHA_AA L_AA PROTEIN AROMATIC POLYMER 
M  END

$$$$



 34 34  0  0  0  0  0  0  0  0999 V2000
   -1.9108    2.7681    3.2295 H   0  0  0  1  0  0  0  0  0  0  0  0
   -1.3210    0.7914    2.8175 C   0  0  0  1  0  0  0  0  0  0  0  0
    0.1414    2.7713    3.0821 N   0  0  0  1  0  0  0  0  0  0  0  0
   -1.1583    2.2915    2.6367 C   0  0  0  1  0  0  0  0  0  0  0  0
   -0.3421    0.0462    2.8189 O   0  0  0  1  0  0  0  0  0  0  0  0
   -2.5625    0.3058    2.9753 N   0  0  0  1  0  0  0  0  0  0  0  0
    0.7479    3.1727    2.4252 H   0  0  0  1  0  0  0  0  0  0  0  0
    0.5366    2.6837    4.3553 C   0  0  0  1  0  0  0  0  0  0  0  0
   -2.8317   -1.1205    3.0809 C   0  0  0  1  0  0  0  0  0  0  0  0
    1.9453    3.1975    4.6788 C   0  0  0  1  0  0  0  0  0  0  0  0
   -0.1960    2.2911    5.2624 O   0  0  0  1  0  0  0  0  0  0  0  0
   -3.3137    0.9335    3.0210 H   0  0  0  1  0  0  0  0  0  0  0  0
   -2.1891   -1.5515    3.8199 H   0  0  0  1  0  0  0  0  0  0  0  0
   -2.6516   -1.5881    2.1355 H   0  0  0  1  0  0  0  0  0  0  0  0
   -3.8524   -1.2705    3.3648 H   0  0  0  1  0  0  0  0  0  0  0  0
    2.2806    3.8400    3.8916 H   0  0  0  1  0  0  0  0  0  0  0  0
    2.6147    2.3679    4.7714 H   0  0  0  1  0  0  0  0  0  0  0  0
    1.9231    3.7430    5.5990 H   0  0  0  1  0  0  0  0  0  0  0  0
   -1.3980    2.7027    1.1831 C   0  0  0  1  0  0  0  0  0  0  0  0
   -1.9309    4.1040    1.0470 C   0  0  0  1  0  0  0  0  0  0  0  0
   -1.0540    5.1728    0.9465 C   0  0  0  1  0  0  0  0  0  0  0  0
   -1.5440    6.4596    0.8269 C   0  0  0  1  0  0  0  0  0  0  0  0
   -2.9122    6.6809    0.8020 C   0  0  0  1  0  0  0  0  0  0  0  0
   -3.7863    5.6151    0.9022 C   0  0  0  1  0  0  0  0  0  0  0  0
   -3.2951    4.3245    1.0222 C   0  0  0  1  0  0  0  0  0  0  0  0
   -3.4399    7.9234    0.6812 O   0  0  0  1  0  0  0  0  0  0  0  0
   -0.7268    7.5365    0.7310 O   0  0  0  1  0  0  0  0  0  0  0  0
   -2.1047    2.0260    0.7499 H   0  0  0  1  0  0  0  0  0  0  0  0
   -0.4706    2.6381    0.6535 H   0  0  0  1  0  0  0  0  0  0  0  0
   -0.0275    5.0065    0.9612 H   0  0  0  1  0  0  0  0  0  0  0  0
   -4.8128    5.7815    0.8876 H   0  0  0  1  0  0  0  0  0  0  0  0
   -3.9530    3.5222    1.0935 H   0  0  0  1  0  0  0  0  0  0  0  0
   -3.1182    8.4790    1.3949 H   0  0  0  1  0  0  0  0  0  0  0  0
   -0.4804    7.6711   -0.1871 H   0  0  0  1  0  0  0  0  0  0  0  0
  1  4  1  0  0  0  0
  2  4  1  0  0  0  0
  2  5  2  0  0  0  0
  2  6  1  0  0  0  0
  3  4  1  0  0  0  0
  3  7  1  0  0  0  0
  3  8  1  0  0  0  0
  4 19  1  0  0  0  0
  6  9  1  0  0  0  0
  6 12  1  0  0  0  0
  8 10  1  0  0  0  0
  8 11  2  0  0  0  0
  9 13  1  0  0  0  0
  9 14  1  0  0  0  0
  9 15  1  0  0  0  0
 10 16  1  0  0  0  0
 10 17  1  0  0  0  0
 10 18  1  0  0  0  0
 19 20  1  0  0  0  0
 19 28  1  0  0  0  0
 19 29  1  0  0  0  0
 20 21  4  0  0  0  0
 20 25  4  0  0  0  0
 21 22  4  0  0  0  0
 21 30  1  0  0  0  0
 22 23  4  0  0  0  0
 22 27  1  0  0  0  0
 23 24  4  0  0  0  0
 23 26  1  0  0  0  0
 24 25  4  0  0  0  0
 24 31  1  0  0  0  0
 25 32  1  0  0  0  0
 26 33  1  0  0  0  0
 27 34  1  0  0  0  0
M  END
> <BCLConfClusterSize>
1

> <ConfClashScore>
0 

> <ConfOneFourInteractionScore>
-0.974322 

> <ConfScore>
0.111044 

> <ConfScorePBest>
0.00319147 

> <ConfTolerance>
0.626157 

> <RosettaParamsInstructions>
M  ROOT 3
M  POLY_N_BB 3
M  POLY_CA_BB 4
M  POLY_C_BB 2
M  POLY_O_BB 5
M  POLY_IGNORE 9 10 11 12 13 14 15 16 17 18 
M  POLY_UPPER 6
M  POLY_LOWER 8
M  POLY_CHG 0
M  POLY_PROPERTIES ALPHA_AA L_AA PROTEIN AROMATIC POLYMER 
M  END

$$$$



 34 34  0  0  0  0  0  0  0  0999 V2000
   -0.0063    2.7464   -0.3804 H   0  0  0  1  0  0  0  0  0  0  0  0
   -0.3731    0.7208    0.0020 C   0  0  0  1  0  0  0  0  0  0  0  0
   -1.7715    2.2579   -1.3011 N   0  0  0  1  0  0  0  0  0  0  0  0
   -0.8653    2.1449   -0.1680 C   0  0  0  1  0  0  0  0  0  0  0  0
   -0.0703    0.2781    1.1087 O   0  0  0  1  0  0  0  0  0  0  0  0
   -0.2940   -0.0036   -1.1178 N   0  0  0  1  0  0  0  0  0  0  0  0
   -1.5103    2.8558   -2.0324 H   0  0  0  1  0  0  0  0  0  0  0  0
   -2.9328    1.6080   -1.4196 C   0  0  0  1  0  0  0  0  0  0  0  0
    0.0022   -1.4267   -1.0481 C   0  0  0  1  0  0  0  0  0  0  0  0
   -3.7820    1.9298   -2.6559 C   0  0  0  1  0  0  0  0  0  0  0  0
   -3.2937    0.7368   -0.6434 O   0  0  0  1  0  0  0  0  0  0  0  0
   -0.4358    0.4242   -1.9880 H   0  0  0  1  0  0  0  0  0  0  0  0
   -0.4869   -1.8521   -0.1968 H   0  0  0  1  0  0  0  0  0  0  0  0
    1.0592   -1.5668   -0.9586 H   0  0  0  1  0  0  0  0  0  0  0  0
   -0.3478   -1.9076   -1.9375 H   0  0  0  1  0  0  0  0  0  0  0  0
   -4.1584    2.9285   -2.5806 H   0  0  0  1  0  0  0  0  0  0  0  0
   -4.6010    1.2437   -2.7141 H   0  0  0  1  0  0  0  0  0  0  0  0
   -3.1790    1.8415   -3.5353 H   0  0  0  1  0  0  0  0  0  0  0  0
   -1.4749    2.6911    1.1262 C   0  0  0  1  0  0  0  0  0  0  0  0
   -1.9336    4.1197    1.0050 C   0  0  0  1  0  0  0  0  0  0  0  0
   -1.0178    5.1204    0.7192 C   0  0  0  1  0  0  0  0  0  0  0  0
   -1.4389    6.4326    0.6133 C   0  0  0  1  0  0  0  0  0  0  0  0
   -2.7776    6.7473    0.7875 C   0  0  0  1  0  0  0  0  0  0  0  0
   -3.6905    5.7494    1.0723 C   0  0  0  1  0  0  0  0  0  0  0  0
   -3.2684    4.4334    1.1786 C   0  0  0  1  0  0  0  0  0  0  0  0
   -3.2820    8.0019    0.6974 O   0  0  0  1  0  0  0  0  0  0  0  0
   -0.5809    7.4456    0.3408 O   0  0  0  1  0  0  0  0  0  0  0  0
   -0.7381    2.6345    1.9001 H   0  0  0  1  0  0  0  0  0  0  0  0
   -2.3162    2.0844    1.3890 H   0  0  0  1  0  0  0  0  0  0  0  0
   -0.0141    4.8838    0.5846 H   0  0  0  1  0  0  0  0  0  0  0  0
   -4.6942    5.9860    1.2070 H   0  0  0  1  0  0  0  0  0  0  0  0
   -3.9561    3.6821    1.3890 H   0  0  0  1  0  0  0  0  0  0  0  0
   -4.2001    7.9591    0.4202 H   0  0  0  1  0  0  0  0  0  0  0  0
   -0.1501    7.7274    1.1511 H   0  0  0  1  0  0  0  0  0  0  0  0
  1  4  1  0  0  0  0
  2  4  1  0  0  0  0
  2  5  2  0  0  0  0
  2  6  1  0  0  0  0
  3  4  1  0  0  0  0
  3  7  1  0  0  0  0
  3  8  1  0  0  0  0
  4 19  1  0  0  0  0
  6  9  1  0  0  0  0
  6 12  1  0  0  0  0
  8 10  1  0  0  0  0
  8 11  2  0  0  0  0
  9 13  1  0  0  0  0
  9 14  1  0  0  0  0
  9 15  1  0  0  0  0
 10 16  1  0  0  0  0
 10 17  1  0  0  0  0
 10 18  1  0  0  0  0
 19 20  1  0  0  0  0
 19 28  1  0  0  0  0
 19 29  1  0  0  0  0
 20 21  4  0  0  0  0
 20 25  4  0  0  0  0
 21 22  4  0  0  0  0
 21 30  1  0  0  0  0
 22 23  4  0  0  0  0
 22 27  1  0  0  0  0
 23 24  4  0  0  0  0
 23 26  1  0  0  0  0
 24 25  4  0  0  0  0
 24 31  1  0  0  0  0
 25 32  1  0  0  0  0
 26 33  1  0  0  0  0
 27 34  1  0  0  0  0
M  END
> <BCLConfClusterSize>
1

> <ConfClashScore>
0 

> <ConfOneFourInteractionScore>
-0.938696 

> <ConfScore>
0.111611 

> <ConfScorePBest>
0.00316299 

> <ConfTolerance>
0.400991 

> <RosettaParamsInstructions>
M  ROOT 3
M  POLY_N_BB 3
M  POLY_CA_BB 4
M  POLY_C_BB 2
M  POLY_O_BB 5
M  POLY_IGNORE 9 10 11 12 13 14 15 16 17 18 
M  POLY_UPPER 6
M  POLY_LOWER 8
M  POLY_CHG 0
M  POLY_PROPERTIES ALPHA_AA L_AA PROTEIN AROMATIC POLYMER 
M  END

$$$$



 34 34  0  0  0  0  0  0  0  0999 V2000
    0.4948    3.2166    0.5291 H   0  0  0  1  0  0  0  0  0  0  0  0
    0.5417    3.2677    2.6419 C   0  0  0  1  0  0  0  0  0  0  0  0
    0.5220    1.2644    1.2171 N   0  0  0  1  0  0  0  0  0  0  0  0
    0.0767    2.6485    1.3337 C   0  0  0  1  0  0  0  0  0  0  0  0
    0.0916    2.9077    3.7133 O   0  0  0  1  0  0  0  0  0  0  0  0
    1.4678    4.2182    2.4869 N   0  0  0  1  0  0  0  0  0  0  0  0
    0.2452    0.6388    1.9187 H   0  0  0  1  0  0  0  0  0  0  0  0
    1.2777    0.7861    0.2274 C   0  0  0  1  0  0  0  0  0  0  0  0
    1.9205    5.0501    3.5918 C   0  0  0  1  0  0  0  0  0  0  0  0
    1.6946   -0.6657    0.3595 C   0  0  0  1  0  0  0  0  0  0  0  0
    1.6235    1.4633   -0.7371 O   0  0  0  1  0  0  0  0  0  0  0  0
    1.8557    4.3601    1.5982 H   0  0  0  1  0  0  0  0  0  0  0  0
    2.0842    6.0485    3.2435 H   0  0  0  1  0  0  0  0  0  0  0  0
    2.8342    4.6552    3.9842 H   0  0  0  1  0  0  0  0  0  0  0  0
    1.1758    5.0583    4.3602 H   0  0  0  1  0  0  0  0  0  0  0  0
    2.1768   -0.9823   -0.5417 H   0  0  0  1  0  0  0  0  0  0  0  0
    0.8291   -1.2708    0.5322 H   0  0  0  1  0  0  0  0  0  0  0  0
    2.3720   -0.7686    1.1814 H   0  0  0  1  0  0  0  0  0  0  0  0
   -1.4422    2.6831    1.1940 C   0  0  0  1  0  0  0  0  0  0  0  0
   -1.9329    4.0991    1.0514 C   0  0  0  1  0  0  0  0  0  0  0  0
   -1.0245    5.1394    0.9329 C   0  0  0  1  0  0  0  0  0  0  0  0
   -1.4758    6.4397    0.8074 C   0  0  0  1  0  0  0  0  0  0  0  0
   -2.8366    6.7031    0.7947 C   0  0  0  1  0  0  0  0  0  0  0  0
   -3.7422    5.6658    0.9129 C   0  0  0  1  0  0  0  0  0  0  0  0
   -3.2899    4.3616    1.0388 C   0  0  0  1  0  0  0  0  0  0  0  0
   -3.2052    8.0006    0.6632 O   0  0  0  1  0  0  0  0  0  0  0  0
   -0.6268    7.4900    0.6938 O   0  0  0  1  0  0  0  0  0  0  0  0
   -1.8846    2.2444    2.0639 H   0  0  0  1  0  0  0  0  0  0  0  0
   -1.7277    2.1240    0.3275 H   0  0  0  1  0  0  0  0  0  0  0  0
   -0.0035    4.9414    0.9383 H   0  0  0  1  0  0  0  0  0  0  0  0
   -4.7632    5.8638    0.9075 H   0  0  0  1  0  0  0  0  0  0  0  0
   -3.9714    3.5806    1.1237 H   0  0  0  1  0  0  0  0  0  0  0  0
   -3.6427    8.2925    1.4663 H   0  0  0  1  0  0  0  0  0  0  0  0
   -0.5223    7.7189   -0.2326 H   0  0  0  1  0  0  0  0  0  0  0  0
  1  4  1  0  0  0  0
  2  4  1  0  0  0  0
  2  5  2  0  0  0  0
  2  6  1  0  0  0  0
  3  4  1  0  0  0  0
  3  7  1  0  0  0  0
  3  8  1  0  0  0  0
  4 19  1  0  0  0  0
  6  9  1  0  0  0  0
  6 12  1  0  0  0  0
  8 10  1  0  0  0  0
  8 11  2  0  0  0  0
  9 13  1  0  0  0  0
  9 14  1  0  0  0  0
  9 15  1  0  0  0  0
 10 16  1  0  0  0  0
 10 17  1  0  0  0  0
 10 18  1  0  0  0  0
 19 20  1  0  0  0  0
 19 28  1  0  0  0  0
 19 29  1  0  0  0  0
 20 21  4  0  0  0  0
 20 25  4  0  0  0  0
 21 22  4  0  0  0  0
 21 30  1  0  0  0  0
 22 23  4  0  0  0  0
 22 27  1  0  0  0  0
 23 24  4  0  0  0  0
 23 26  1  0  0  0  0
 24 25  4  0  0  0  0
 24 31  1  0  0  0  0
 25 32  1  0  0  0  0
 26 33  1  0  0  0  0
 27 34  1  0  0  0  0
M  END
> <BCLConfClusterSize>
1

> <ConfClashScore>
0 

> <ConfOneFourInteractionScore>
-0.968709 

> <ConfScore>
0.116666 

> <ConfScorePBest>
0.00313451 

> <ConfTolerance>
0.80932 

> <RosettaParamsInstructions>
M  ROOT 3
M  POLY_N_BB 3
M  POLY_CA_BB 4
M  POLY_C_BB 2
M  POLY_O_BB 5
M  POLY_IGNORE 9 10 11 12 13 14 15 16 17 18 
M  POLY_UPPER 6
M  POLY_LOWER 8
M  POLY_CHG 0
M  POLY_PROPERTIES ALPHA_AA L_AA PROTEIN AROMATIC POLYMER 
M  END

$$$$



 34 34  0  0  0  0  0  0  0  0999 V2000
   -2.9550    1.7226    2.2066 H   0  0  0  1  0  0  0  0  0  0  0  0
   -1.1644    0.6202    2.4713 C   0  0  0  1  0  0  0  0  0  0  0  0
   -1.7208    2.7773    3.4988 N   0  0  0  1  0  0  0  0  0  0  0  0
   -1.9129    1.9415    2.3112 C   0  0  0  1  0  0  0  0  0  0  0  0
   -0.9113   -0.0869    1.4968 O   0  0  0  1  0  0  0  0  0  0  0  0
   -0.8919    0.2730    3.7323 N   0  0  0  1  0  0  0  0  0  0  0  0
   -2.5347    3.0802    3.9530 H   0  0  0  1  0  0  0  0  0  0  0  0
   -0.5572    3.1752    4.0355 C   0  0  0  1  0  0  0  0  0  0  0  0
   -0.2958   -0.9911    4.1381 C   0  0  0  1  0  0  0  0  0  0  0  0
   -0.6628    4.1789    5.1671 C   0  0  0  1  0  0  0  0  0  0  0  0
    0.5347    2.7633    3.6476 O   0  0  0  1  0  0  0  0  0  0  0  0
   -1.1098    0.9181    4.4371 H   0  0  0  1  0  0  0  0  0  0  0  0
   -0.3633   -1.6926    3.3330 H   0  0  0  1  0  0  0  0  0  0  0  0
   -0.8183   -1.3744    4.9896 H   0  0  0  1  0  0  0  0  0  0  0  0
    0.7324   -0.8357    4.3901 H   0  0  0  1  0  0  0  0  0  0  0  0
   -0.9060    3.6686    6.0756 H   0  0  0  1  0  0  0  0  0  0  0  0
   -1.4293    4.8907    4.9419 H   0  0  0  1  0  0  0  0  0  0  0  0
    0.2725    4.6858    5.2824 H   0  0  0  1  0  0  0  0  0  0  0  0
   -1.4525    2.6685    1.0545 C   0  0  0  1  0  0  0  0  0  0  0  0
   -1.9385    4.0915    0.9849 C   0  0  0  1  0  0  0  0  0  0  0  0
   -1.0433    5.1185    0.7291 C   0  0  0  1  0  0  0  0  0  0  0  0
   -1.4894    6.4253    0.6706 C   0  0  0  1  0  0  0  0  0  0  0  0
   -2.8327    6.7086    0.8625 C   0  0  0  1  0  0  0  0  0  0  0  0
   -3.7251    5.6845    1.1176 C   0  0  0  1  0  0  0  0  0  0  0  0
   -3.2779    4.3737    1.1762 C   0  0  0  1  0  0  0  0  0  0  0  0
   -3.1980    8.0114    0.7857 O   0  0  0  1  0  0  0  0  0  0  0  0
   -0.6887    7.4923    0.4318 O   0  0  0  1  0  0  0  0  0  0  0  0
   -1.8223    2.1402    0.2006 H   0  0  0  1  0  0  0  0  0  0  0  0
   -0.3827    2.6727    1.0361 H   0  0  0  1  0  0  0  0  0  0  0  0
   -0.0361    4.9057    0.5811 H   0  0  0  1  0  0  0  0  0  0  0  0
   -4.7323    5.8974    1.2655 H   0  0  0  1  0  0  0  0  0  0  0  0
   -3.9502    3.6028    1.3642 H   0  0  0  1  0  0  0  0  0  0  0  0
   -3.7373    8.1474    0.0032 H   0  0  0  1  0  0  0  0  0  0  0  0
   -0.3771    7.8522    1.2655 H   0  0  0  1  0  0  0  0  0  0  0  0
  1  4  1  0  0  0  0
  2  4  1  0  0  0  0
  2  5  2  0  0  0  0
  2  6  1  0  0  0  0
  3  4  1  0  0  0  0
  3  7  1  0  0  0  0
  3  8  1  0  0  0  0
  4 19  1  0  0  0  0
  6  9  1  0  0  0  0
  6 12  1  0  0  0  0
  8 10  1  0  0  0  0
  8 11  2  0  0  0  0
  9 13  1  0  0  0  0
  9 14  1  0  0  0  0
  9 15  1  0  0  0  0
 10 16  1  0  0  0  0
 10 17  1  0  0  0  0
 10 18  1  0  0  0  0
 19 20  1  0  0  0  0
 19 28  1  0  0  0  0
 19 29  1  0  0  0  0
 20 21  4  0  0  0  0
 20 25  4  0  0  0  0
 21 22  4  0  0  0  0
 21 30  1  0  0  0  0
 22 23  4  0  0  0  0
 22 27  1  0  0  0  0
 23 24  4  0  0  0  0
 23 26  1  0  0  0  0
 24 25  4  0  0  0  0
 24 31  1  0  0  0  0
 25 32  1  0  0  0  0
 26 33  1  0  0  0  0
 27 34  1  0  0  0  0
M  END
> <BCLConfClusterSize>
1

> <ConfClashScore>
0 

> <ConfOneFourInteractionScore>
-0.925537 

> <ConfScore>
0.124186 

> <ConfScorePBest>
0.00310603 

> <ConfTolerance>
0.693856 

> <RosettaParamsInstructions>
M  ROOT 3
M  POLY_N_BB 3
M  POLY_CA_BB 4
M  POLY_C_BB 2
M  POLY_O_BB 5
M  POLY_IGNORE 9 10 11 12 13 14 15 16 17 18 
M  POLY_UPPER 6
M  POLY_LOWER 8
M  POLY_CHG 0
M  POLY_PROPERTIES ALPHA_AA L_AA PROTEIN AROMATIC POLYMER 
M  END

$$$$



 34 34  0  0  0  0  0  0  0  0999 V2000
   -1.5362    2.5009    3.0953 H   0  0  0  1  0  0  0  0  0  0  0  0
   -0.5819    0.7610    2.4595 C   0  0  0  1  0  0  0  0  0  0  0  0
    0.4176    3.0038    2.6809 N   0  0  0  1  0  0  0  0  0  0  0  0
   -0.8109    2.2514    2.3492 C   0  0  0  1  0  0  0  0  0  0  0  0
    0.4967    0.2630    2.1397 O   0  0  0  1  0  0  0  0  0  0  0  0
   -1.5941   -0.0041    2.9182 N   0  0  0  1  0  0  0  0  0  0  0  0
    0.3942    3.6445    3.4222 H   0  0  0  1  0  0  0  0  0  0  0  0
    1.5699    2.8392    1.9987 C   0  0  0  1  0  0  0  0  0  0  0  0
   -1.4145   -1.4413    3.0676 C   0  0  0  1  0  0  0  0  0  0  0  0
    2.7458    3.7150    2.3679 C   0  0  0  1  0  0  0  0  0  0  0  0
    1.6635    2.0034    1.1037 O   0  0  0  1  0  0  0  0  0  0  0  0
   -2.4519    0.4084    3.1513 H   0  0  0  1  0  0  0  0  0  0  0  0
   -0.4059   -1.6468    3.3597 H   0  0  0  1  0  0  0  0  0  0  0  0
   -1.6214   -1.9251    2.1359 H   0  0  0  1  0  0  0  0  0  0  0  0
   -2.0844   -1.8081    3.8170 H   0  0  0  1  0  0  0  0  0  0  0  0
    2.9318    3.6388    3.4189 H   0  0  0  1  0  0  0  0  0  0  0  0
    2.5255    4.7317    2.1177 H   0  0  0  1  0  0  0  0  0  0  0  0
    3.6124    3.3941    1.8285 H   0  0  0  1  0  0  0  0  0  0  0  0
   -1.3800    2.7243    1.0322 C   0  0  0  1  0  0  0  0  0  0  0  0
   -1.9338    4.1229    0.9753 C   0  0  0  1  0  0  0  0  0  0  0  0
   -1.0872    5.1952    0.7408 C   0  0  0  1  0  0  0  0  0  0  0  0
   -1.5957    6.4796    0.6940 C   0  0  0  1  0  0  0  0  0  0  0  0
   -2.9529    6.6949    0.8762 C   0  0  0  1  0  0  0  0  0  0  0  0
   -3.7968    5.6257    1.1099 C   0  0  0  1  0  0  0  0  0  0  0  0
   -3.2871    4.3375    1.1569 C   0  0  0  1  0  0  0  0  0  0  0  0
   -3.4281    7.9629    0.8205 O   0  0  0  1  0  0  0  0  0  0  0  0
   -0.6724    7.4446    0.4639 O   0  0  0  1  0  0  0  0  0  0  0  0
   -2.1718    2.0554    0.7668 H   0  0  0  1  0  0  0  0  0  0  0  0
   -0.5986    2.6596    0.3041 H   0  0  0  1  0  0  0  0  0  0  0  0
   -0.0696    5.0333    0.6002 H   0  0  0  1  0  0  0  0  0  0  0  0
   -4.8145    5.7876    1.2506 H   0  0  0  1  0  0  0  0  0  0  0  0
   -3.9228    3.5326    1.3288 H   0  0  0  1  0  0  0  0  0  0  0  0
   -3.2656    8.3280   -0.0523 H   0  0  0  1  0  0  0  0  0  0  0  0
   -0.2727    7.7105    1.2952 H   0  0  0  1  0  0  0  0  0  0  0  0
  1  4  1  0  0  0  0
  2  4  1  0  0  0  0
  2  5  2  0  0  0  0
  2  6  1  0  0  0  0
  3  4  1  0  0  0  0
  3  7  1  0  0  0  0
  3  8  1  0  0  0  0
  4 19  1  0  0  0  0
  6  9  1  0  0  0  0
  6 12  1  0  0  0  0
  8 10  1  0  0  0  0
  8 11  2  0  0  0  0
  9 13  1  0  0  0  0
  9 14  1  0  0  0  0
  9 15  1  0  0  0  0
 10 16  1  0  0  0  0
 10 17  1  0  0  0  0
 10 18  1  0  0  0  0
 19 20  1  0  0  0  0
 19 28  1  0  0  0  0
 19 29  1  0  0  0  0
 20 21  4  0  0  0  0
 20 25  4  0  0  0  0
 21 22  4  0  0  0  0
 21 30  1  0  0  0  0
 22 23  4  0  0  0  0
 22 27  1  0  0  0  0
 23 24  4  0  0  0  0
 23 26  1  0  0  0  0
 24 25  4  0  0  0  0
 24 31  1  0  0  0  0
 25 32  1  0  0  0  0
 26 33  1  0  0  0  0
 27 34  1  0  0  0  0
M  END
> <BCLConfClusterSize>
1

> <ConfClashScore>
0 

> <ConfOneFourInteractionScore>
-0.980716 

> <ConfScore>
0.127484 

> <ConfScorePBest>
0.00307755 

> <ConfTolerance>
0.372828 

> <RosettaParamsInstructions>
M  ROOT 3
M  POLY_N_BB 3
M  POLY_CA_BB 4
M  POLY_C_BB 2
M  POLY_O_BB 5
M  POLY_IGNORE 9 10 11 12 13 14 15 16 17 18 
M  POLY_UPPER 6
M  POLY_LOWER 8
M  POLY_CHG 0
M  POLY_PROPERTIES ALPHA_AA L_AA PROTEIN AROMATIC POLYMER 
M  END

$$$$



 34 34  0  0  0  0  0  0  0  0999 V2000
   -3.1749    1.6272    1.5188 H   0  0  0  1  0  0  0  0  0  0  0  0
   -1.6226    0.4564    2.3289 C   0  0  0  1  0  0  0  0  0  0  0  0
   -2.6476    2.4877    3.3121 N   0  0  0  1  0  0  0  0  0  0  0  0
   -2.2813    1.8069    2.0791 C   0  0  0  1  0  0  0  0  0  0  0  0
   -1.0757   -0.1534    1.4241 O   0  0  0  1  0  0  0  0  0  0  0  0
   -1.7654   -0.0228    3.5679 N   0  0  0  1  0  0  0  0  0  0  0  0
   -1.9368    2.8469    3.8832 H   0  0  0  1  0  0  0  0  0  0  0  0
   -3.9193    2.6402    3.6925 C   0  0  0  1  0  0  0  0  0  0  0  0
   -1.1148   -1.2829    3.8949 C   0  0  0  1  0  0  0  0  0  0  0  0
   -4.1284    3.2891    5.0469 C   0  0  0  1  0  0  0  0  0  0  0  0
   -4.8726    2.2831    3.0016 O   0  0  0  1  0  0  0  0  0  0  0  0
   -2.2932    0.4605    4.2374 H   0  0  0  1  0  0  0  0  0  0  0  0
   -1.7325   -1.8395    4.5684 H   0  0  0  1  0  0  0  0  0  0  0  0
   -0.1700   -1.0867    4.3573 H   0  0  0  1  0  0  0  0  0  0  0  0
   -0.9636   -1.8488    2.9995 H   0  0  0  1  0  0  0  0  0  0  0  0
   -4.6716    4.2029    4.9251 H   0  0  0  1  0  0  0  0  0  0  0  0
   -3.1783    3.4960    5.4935 H   0  0  0  1  0  0  0  0  0  0  0  0
   -4.6829    2.6263    5.6779 H   0  0  0  1  0  0  0  0  0  0  0  0
   -1.3853    2.7114    1.2273 C   0  0  0  1  0  0  0  0  0  0  0  0
   -1.9281    4.1075    1.0783 C   0  0  0  1  0  0  0  0  0  0  0  0
   -1.0759    5.1638    0.7961 C   0  0  0  1  0  0  0  0  0  0  0  0
   -1.5908    6.4278    0.5784 C   0  0  0  1  0  0  0  0  0  0  0  0
   -2.9597    6.6382    0.6369 C   0  0  0  1  0  0  0  0  0  0  0  0
   -3.8092    5.5850    0.9182 C   0  0  0  1  0  0  0  0  0  0  0  0
   -3.2930    4.3172    1.1366 C   0  0  0  1  0  0  0  0  0  0  0  0
   -3.3925    7.9019    0.4076 O   0  0  0  1  0  0  0  0  0  0  0  0
   -0.7980    7.4923    0.3046 O   0  0  0  1  0  0  0  0  0  0  0  0
   -1.2902    2.2773    0.2539 H   0  0  0  1  0  0  0  0  0  0  0  0
   -0.4216    2.7681    1.6888 H   0  0  0  1  0  0  0  0  0  0  0  0
   -0.0491    5.0052    0.7483 H   0  0  0  1  0  0  0  0  0  0  0  0
   -4.8359    5.7436    0.9660 H   0  0  0  1  0  0  0  0  0  0  0  0
   -3.9326    3.5239    1.3442 H   0  0  0  1  0  0  0  0  0  0  0  0
   -2.9693    8.5026    1.0253 H   0  0  0  1  0  0  0  0  0  0  0  0
   -0.4599    7.8594    1.1246 H   0  0  0  1  0  0  0  0  0  0  0  0
  1  4  1  0  0  0  0
  2  4  1  0  0  0  0
  2  5  2  0  0  0  0
  2  6  1  0  0  0  0
  3  4  1  0  0  0  0
  3  7  1  0  0  0  0
  3  8  1  0  0  0  0
  4 19  1  0  0  0  0
  6  9  1  0  0  0  0
  6 12  1  0  0  0  0
  8 10  1  0  0  0  0
  8 11  2  0  0  0  0
  9 13  1  0  0  0  0
  9 14  1  0  0  0  0
  9 15  1  0  0  0  0
 10 16  1  0  0  0  0
 10 17  1  0  0  0  0
 10 18  1  0  0  0  0
 19 20  1  0  0  0  0
 19 28  1  0  0  0  0
 19 29  1  0  0  0  0
 20 21  4  0  0  0  0
 20 25  4  0  0  0  0
 21 22  4  0  0  0  0
 21 30  1  0  0  0  0
 22 23  4  0  0  0  0
 22 27  1  0  0  0  0
 23 24  4  0  0  0  0
 23 26  1  0  0  0  0
 24 25  4  0  0  0  0
 24 31  1  0  0  0  0
 25 32  1  0  0  0  0
 26 33  1  0  0  0  0
 27 34  1  0  0  0  0
M  END
> <BCLConfClusterSize>
1

> <ConfClashScore>
0 

> <ConfOneFourInteractionScore>
-0.934209 

> <ConfScore>
0.128171 

> <ConfScorePBest>
0.00304907 

> <ConfTolerance>
0.731691 

> <RosettaParamsInstructions>
M  ROOT 3
M  POLY_N_BB 3
M  POLY_CA_BB 4
M  POLY_C_BB 2
M  POLY_O_BB 5
M  POLY_IGNORE 9 10 11 12 13 14 15 16 17 18 
M  POLY_UPPER 6
M  POLY_LOWER 8
M  POLY_CHG 0
M  POLY_PROPERTIES ALPHA_AA L_AA PROTEIN AROMATIC POLYMER 
M  END

$$$$



 34 34  0  0  0  0  0  0  0  0999 V2000
    0.1413    1.3646    1.2718 H   0  0  0  1  0  0  0  0  0  0  0  0
    0.4681    2.7239   -0.2823 C   0  0  0  1  0  0  0  0  0  0  0  0
    0.7067    3.1100    2.1737 N   0  0  0  1  0  0  0  0  0  0  0  0
   -0.0255    2.4111    1.1235 C   0  0  0  1  0  0  0  0  0  0  0  0
    1.1597    3.7155   -0.5102 O   0  0  0  1  0  0  0  0  0  0  0  0
    0.1023    1.8600   -1.2305 N   0  0  0  1  0  0  0  0  0  0  0  0
    1.1506    3.9565    1.9576 H   0  0  0  1  0  0  0  0  0  0  0  0
    0.7932    2.6363    3.4199 C   0  0  0  1  0  0  0  0  0  0  0  0
    0.4193    2.1294   -2.6285 C   0  0  0  1  0  0  0  0  0  0  0  0
    1.6747    3.4224    4.3987 C   0  0  0  1  0  0  0  0  0  0  0  0
    0.1493    1.6690    3.8177 O   0  0  0  1  0  0  0  0  0  0  0  0
   -0.3805    1.0425   -0.9873 H   0  0  0  1  0  0  0  0  0  0  0  0
   -0.4300    1.9008   -3.2378 H   0  0  0  1  0  0  0  0  0  0  0  0
    1.2476    1.5225   -2.9295 H   0  0  0  1  0  0  0  0  0  0  0  0
    0.6730    3.1625   -2.7437 H   0  0  0  1  0  0  0  0  0  0  0  0
    2.6817    3.4400    4.0373 H   0  0  0  1  0  0  0  0  0  0  0  0
    1.6487    2.9513    5.3590 H   0  0  0  1  0  0  0  0  0  0  0  0
    1.3085    4.4243    4.4823 H   0  0  0  1  0  0  0  0  0  0  0  0
   -1.5271    2.6248    1.2618 C   0  0  0  1  0  0  0  0  0  0  0  0
   -1.9394    4.0589    1.0632 C   0  0  0  1  0  0  0  0  0  0  0  0
   -0.9798    5.0290    0.8192 C   0  0  0  1  0  0  0  0  0  0  0  0
   -1.3586    6.3464    0.6424 C   0  0  0  1  0  0  0  0  0  0  0  0
   -2.6983    6.6967    0.7037 C   0  0  0  1  0  0  0  0  0  0  0  0
   -3.6550    5.7294    0.9469 C   0  0  0  1  0  0  0  0  0  0  0  0
   -3.2753    4.4080    1.1243 C   0  0  0  1  0  0  0  0  0  0  0  0
   -3.1187    7.9736    0.5316 O   0  0  0  1  0  0  0  0  0  0  0  0
   -0.4925    7.3614    0.4049 O   0  0  0  1  0  0  0  0  0  0  0  0
   -1.8261    2.3170    2.2420 H   0  0  0  1  0  0  0  0  0  0  0  0
   -2.0255    2.0229    0.5308 H   0  0  0  1  0  0  0  0  0  0  0  0
    0.0251    4.7656    0.7693 H   0  0  0  1  0  0  0  0  0  0  0  0
   -4.6598    5.9928    0.9969 H   0  0  0  1  0  0  0  0  0  0  0  0
   -3.9956    3.6795    1.3034 H   0  0  0  1  0  0  0  0  0  0  0  0
   -3.9143    8.1214    1.0481 H   0  0  0  1  0  0  0  0  0  0  0  0
   -0.8900    8.1920    0.6765 H   0  0  0  1  0  0  0  0  0  0  0  0
  1  4  1  0  0  0  0
  2  4  1  0  0  0  0
  2  5  2  0  0  0  0
  2  6  1  0  0  0  0
  3  4  1  0  0  0  0
  3  7  1  0  0  0  0
  3  8  1  0  0  0  0
  4 19  1  0  0  0  0
  6  9  1  0  0  0  0
  6 12  1  0  0  0  0
  8 10  1  0  0  0  0
  8 11  2  0  0  0  0
  9 13  1  0  0  0  0
  9 14  1  0  0  0  0
  9 15  1  0  0  0  0
 10 16  1  0  0  0  0
 10 17  1  0  0  0  0
 10 18  1  0  0  0  0
 19 20  1  0  0  0  0
 19 28  1  0  0  0  0
 19 29  1  0  0  0  0
 20 21  4  0  0  0  0
 20 25  4  0  0  0  0
 21 22  4  0  0  0  0
 21 30  1  0  0  0  0
 22 23  4  0  0  0  0
 22 27  1  0  0  0  0
 23 24  4  0  0  0  0
 23 26  1  0  0  0  0
 24 25  4  0  0  0  0
 24 31  1  0  0  0  0
 25 32  1  0  0  0  0
 26 33  1  0  0  0  0
 27 34  1  0  0  0  0
M  END
> <BCLConfClusterSize>
1

> <ConfClashScore>
0 

> <ConfOneFourInteractionScore>
-0.973348 

> <ConfScore>
0.131088 

> <ConfScorePBest>
0.00302059 

> <ConfTolerance>
0.843615 

> <RosettaParamsInstructions>
M  ROOT 3
M  POLY_N_BB 3
M  POLY_CA_BB 4
M  POLY_C_BB 2
M  POLY_O_BB 5
M  POLY_IGNORE 9 10 11 12 13 14 15 16 17 18 
M  POLY_UPPER 6
M  POLY_LOWER 8
M  POLY_CHG 0
M  POLY_PROPERTIES ALPHA_AA L_AA PROTEIN AROMATIC POLYMER 
M  END

$$$$



 34 34  0  0  0  0  0  0  0  0999 V2000
   -1.7597    0.7887    0.2202 H   0  0  0  1  0  0  0  0  0  0  0  0
   -3.3852    2.0234   -0.3521 C   0  0  0  1  0  0  0  0  0  0  0  0
   -1.1818    2.0772   -1.3057 N   0  0  0  1  0  0  0  0  0  0  0  0
   -1.9108    1.8070   -0.0716 C   0  0  0  1  0  0  0  0  0  0  0  0
   -4.2432    1.2988    0.1490 O   0  0  0  1  0  0  0  0  0  0  0  0
   -3.6779    3.0408   -1.1691 N   0  0  0  1  0  0  0  0  0  0  0  0
   -0.5015    2.7823   -1.3274 H   0  0  0  1  0  0  0  0  0  0  0  0
   -1.4391    1.3666   -2.4049 C   0  0  0  1  0  0  0  0  0  0  0  0
   -5.0481    3.4412   -1.4521 C   0  0  0  1  0  0  0  0  0  0  0  0
   -0.5798    1.6868   -3.6125 C   0  0  0  1  0  0  0  0  0  0  0  0
   -2.3137    0.5027   -2.4546 O   0  0  0  1  0  0  0  0  0  0  0  0
   -2.9442    3.5340   -1.5920 H   0  0  0  1  0  0  0  0  0  0  0  0
   -5.0635    4.0812   -2.3094 H   0  0  0  1  0  0  0  0  0  0  0  0
   -5.4477    3.9650   -0.6090 H   0  0  0  1  0  0  0  0  0  0  0  0
   -5.6407    2.5716   -1.6459 H   0  0  0  1  0  0  0  0  0  0  0  0
    0.1995    2.3623   -3.3273 H   0  0  0  1  0  0  0  0  0  0  0  0
   -1.1844    2.1396   -4.3703 H   0  0  0  1  0  0  0  0  0  0  0  0
   -0.1479    0.7843   -3.9919 H   0  0  0  1  0  0  0  0  0  0  0  0
   -1.4513    2.7115    1.0602 C   0  0  0  1  0  0  0  0  0  0  0  0
   -1.9321    4.1359    0.9836 C   0  0  0  1  0  0  0  0  0  0  0  0
   -1.0324    5.1588    0.7271 C   0  0  0  1  0  0  0  0  0  0  0  0
   -1.4737    6.4670    0.6622 C   0  0  0  1  0  0  0  0  0  0  0  0
   -2.8166    6.7556    0.8483 C   0  0  0  1  0  0  0  0  0  0  0  0
   -3.7135    5.7357    1.1040 C   0  0  0  1  0  0  0  0  0  0  0  0
   -3.2712    4.4236    1.1691 C   0  0  0  1  0  0  0  0  0  0  0  0
   -3.3403    8.0046    0.7976 O   0  0  0  1  0  0  0  0  0  0  0  0
   -0.6683    7.5303    0.4222 O   0  0  0  1  0  0  0  0  0  0  0  0
   -0.3814    2.7237    1.0593 H   0  0  0  1  0  0  0  0  0  0  0  0
   -1.8029    2.2935    1.9802 H   0  0  0  1  0  0  0  0  0  0  0  0
   -0.0254    4.9419    0.5835 H   0  0  0  1  0  0  0  0  0  0  0  0
   -4.7205    5.9526    1.2476 H   0  0  0  1  0  0  0  0  0  0  0  0
   -3.9468    3.6557    1.3576 H   0  0  0  1  0  0  0  0  0  0  0  0
   -4.1577    7.9892    0.2943 H   0  0  0  1  0  0  0  0  0  0  0  0
    0.0705    7.5174    1.0350 H   0  0  0  1  0  0  0  0  0  0  0  0
  1  4  1  0  0  0  0
  2  4  1  0  0  0  0
  2  5  2  0  0  0  0
  2  6  1  0  0  0  0
  3  4  1  0  0  0  0
  3  7  1  0  0  0  0
  3  8  1  0  0  0  0
  4 19  1  0  0  0  0
  6  9  1  0  0  0  0
  6 12  1  0  0  0  0
  8 10  1  0  0  0  0
  8 11  2  0  0  0  0
  9 13  1  0  0  0  0
  9 14  1  0  0  0  0
  9 15  1  0  0  0  0
 10 16  1  0  0  0  0
 10 17  1  0  0  0  0
 10 18  1  0  0  0  0
 19 20  1  0  0  0  0
 19 28  1  0  0  0  0
 19 29  1  0  0  0  0
 20 21  4  0  0  0  0
 20 25  4  0  0  0  0
 21 22  4  0  0  0  0
 21 30  1  0  0  0  0
 22 23  4  0  0  0  0
 22 27  1  0  0  0  0
 23 24  4  0  0  0  0
 23 26  1  0  0  0  0
 24 25  4  0  0  0  0
 24 31  1  0  0  0  0
 25 32  1  0  0  0  0
 26 33  1  0  0  0  0
 27 34  1  0  0  0  0
M  END
> <BCLConfClusterSize>
1

> <ConfClashScore>
0 

> <ConfOneFourInteractionScore>
-0.957074 

> <ConfScore>
0.134125 

> <ConfScorePBest>
0.00299211 

> <ConfTolerance>
0.900249 

> <RosettaParamsInstructions>
M  ROOT 3
M  POLY_N_BB 3
M  POLY_CA_BB 4
M  POLY_C_BB 2
M  POLY_O_BB 5
M  POLY_IGNORE 9 10 11 12 13 14 15 16 17 18 
M  POLY_UPPER 6
M  POLY_LOWER 8
M  POLY_CHG 0
M  POLY_PROPERTIES ALPHA_AA L_AA PROTEIN AROMATIC POLYMER 
M  END

$$$$



 34 34  0  0  0  0  0  0  0  0999 V2000
   -1.6822    0.8535   -0.0645 H   0  0  0  1  0  0  0  0  0  0  0  0
   -3.5669    1.8005   -0.1303 C   0  0  0  1  0  0  0  0  0  0  0  0
   -1.5862    2.4270   -1.3957 N   0  0  0  1  0  0  0  0  0  0  0  0
   -2.0517    1.8543   -0.1473 C   0  0  0  1  0  0  0  0  0  0  0  0
   -4.2395    2.5126   -0.8748 O   0  0  0  1  0  0  0  0  0  0  0  0
   -4.1100    0.9351    0.7405 N   0  0  0  1  0  0  0  0  0  0  0  0
   -1.6499    3.3965   -1.5242 H   0  0  0  1  0  0  0  0  0  0  0  0
   -1.0735    1.6790   -2.3768 C   0  0  0  1  0  0  0  0  0  0  0  0
   -5.5491    0.8099    0.9170 C   0  0  0  1  0  0  0  0  0  0  0  0
   -0.7147    2.4190   -3.6507 C   0  0  0  1  0  0  0  0  0  0  0  0
   -0.8969    0.4681   -2.2719 O   0  0  0  1  0  0  0  0  0  0  0  0
   -3.5167    0.3679    1.2759 H   0  0  0  1  0  0  0  0  0  0  0  0
   -6.0500    1.2049    0.0579 H   0  0  0  1  0  0  0  0  0  0  0  0
   -5.8502    1.3550    1.7871 H   0  0  0  1  0  0  0  0  0  0  0  0
   -5.8052   -0.2222    1.0357 H   0  0  0  1  0  0  0  0  0  0  0  0
   -0.1228    3.2775   -3.4104 H   0  0  0  1  0  0  0  0  0  0  0  0
   -1.6103    2.7310   -4.1460 H   0  0  0  1  0  0  0  0  0  0  0  0
   -0.1576    1.7710   -4.2945 H   0  0  0  1  0  0  0  0  0  0  0  0
   -1.5310    2.6491    1.0431 C   0  0  0  1  0  0  0  0  0  0  0  0
   -1.9279    4.1006    1.0020 C   0  0  0  1  0  0  0  0  0  0  0  0
   -0.9973    5.1218    0.8899 C   0  0  0  1  0  0  0  0  0  0  0  0
   -1.4165    6.4386    0.8622 C   0  0  0  1  0  0  0  0  0  0  0  0
   -2.7677    6.7378    0.9411 C   0  0  0  1  0  0  0  0  0  0  0  0
   -3.6954    5.7194    1.0529 C   0  0  0  1  0  0  0  0  0  0  0  0
   -3.2752    4.3988    1.0807 C   0  0  0  1  0  0  0  0  0  0  0  0
   -3.1541    8.0363    0.9065 O   0  0  0  1  0  0  0  0  0  0  0  0
   -0.4169    7.3475    0.7556 O   0  0  0  1  0  0  0  0  0  0  0  0
   -0.4628    2.5883    1.0523 H   0  0  0  1  0  0  0  0  0  0  0  0
   -1.9213    2.2146    1.9396 H   0  0  0  1  0  0  0  0  0  0  0  0
    0.0162    4.8972    0.8267 H   0  0  0  1  0  0  0  0  0  0  0  0
   -4.7089    5.9441    1.1161 H   0  0  0  1  0  0  0  0  0  0  0  0
   -3.9737    3.6324    1.1608 H   0  0  0  1  0  0  0  0  0  0  0  0
   -4.0892    8.0869    0.6952 H   0  0  0  1  0  0  0  0  0  0  0  0
   -0.5418    7.8693   -0.0404 H   0  0  0  1  0  0  0  0  0  0  0  0
  1  4  1  0  0  0  0
  2  4  1  0  0  0  0
  2  5  2  0  0  0  0
  2  6  1  0  0  0  0
  3  4  1  0  0  0  0
  3  7  1  0  0  0  0
  3  8  1  0  0  0  0
  4 19  1  0  0  0  0
  6  9  1  0  0  0  0
  6 12  1  0  0  0  0
  8 10  1  0  0  0  0
  8 11  2  0  0  0  0
  9 13  1  0  0  0  0
  9 14  1  0  0  0  0
  9 15  1  0  0  0  0
 10 16  1  0  0  0  0
 10 17  1  0  0  0  0
 10 18  1  0  0  0  0
 19 20  1  0  0  0  0
 19 28  1  0  0  0  0
 19 29  1  0  0  0  0
 20 21  4  0  0  0  0
 20 25  4  0  0  0  0
 21 22  4  0  0  0  0
 21 30  1  0  0  0  0
 22 23  4  0  0  0  0
 22 27  1  0  0  0  0
 23 24  4  0  0  0  0
 23 26  1  0  0  0  0
 24 25  4  0  0  0  0
 24 31  1  0  0  0  0
 25 32  1  0  0  0  0
 26 33  1  0  0  0  0
 27 34  1  0  0  0  0
M  END
> <BCLConfClusterSize>
1

> <ConfClashScore>
0 

> <ConfOneFourInteractionScore>
-0.976093 

> <ConfScore>
0.136106 

> <ConfScorePBest>
0.00296363 

> <ConfTolerance>
0.79231 

> <RosettaParamsInstructions>
M  ROOT 3
M  POLY_N_BB 3
M  POLY_CA_BB 4
M  POLY_C_BB 2
M  POLY_O_BB 5
M  POLY_IGNORE 9 10 11 12 13 14 15 16 17 18 
M  POLY_UPPER 6
M  POLY_LOWER 8
M  POLY_CHG 0
M  POLY_PROPERTIES ALPHA_AA L_AA PROTEIN AROMATIC POLYMER 
M  END

$$$$



 34 34  0  0  0  0  0  0  0  0999 V2000
   -0.1536    2.8171    2.7451 H   0  0  0  1  0  0  0  0  0  0  0  0
   -2.0930    2.5588    3.4972 C   0  0  0  1  0  0  0  0  0  0  0  0
   -0.6542    0.8465    2.4833 N   0  0  0  1  0  0  0  0  0  0  0  0
   -1.0199    2.2550    2.4651 C   0  0  0  1  0  0  0  0  0  0  0  0
   -2.8085    1.6707    3.9531 O   0  0  0  1  0  0  0  0  0  0  0  0
   -2.1985    3.8362    3.8644 N   0  0  0  1  0  0  0  0  0  0  0  0
   -1.3151    0.2113    2.8298 H   0  0  0  1  0  0  0  0  0  0  0  0
    0.5412    0.3430    2.0535 C   0  0  0  1  0  0  0  0  0  0  0  0
   -3.1758    4.2852    4.8459 C   0  0  0  1  0  0  0  0  0  0  0  0
    0.6364   -1.1665    2.1610 C   0  0  0  1  0  0  0  0  0  0  0  0
    1.4286    1.0599    1.6292 O   0  0  0  1  0  0  0  0  0  0  0  0
   -1.5973    4.4958    3.4596 H   0  0  0  1  0  0  0  0  0  0  0  0
   -3.3347    5.3376    4.7360 H   0  0  0  1  0  0  0  0  0  0  0  0
   -2.8114    4.0808    5.8309 H   0  0  0  1  0  0  0  0  0  0  0  0
   -4.0993    3.7673    4.6920 H   0  0  0  1  0  0  0  0  0  0  0  0
    0.8460   -1.5807    1.1970 H   0  0  0  1  0  0  0  0  0  0  0  0
   -0.2916   -1.5573    2.5228 H   0  0  0  1  0  0  0  0  0  0  0  0
    1.4222   -1.4266    2.8392 H   0  0  0  1  0  0  0  0  0  0  0  0
   -1.4242    2.7362    1.0715 C   0  0  0  1  0  0  0  0  0  0  0  0
   -1.9255    4.1538    0.9986 C   0  0  0  1  0  0  0  0  0  0  0  0
   -1.0294    5.1989    0.8369 C   0  0  0  1  0  0  0  0  0  0  0  0
   -1.4900    6.5006    0.7754 C   0  0  0  1  0  0  0  0  0  0  0  0
   -2.8483    6.7606    0.8701 C   0  0  0  1  0  0  0  0  0  0  0  0
   -3.7416    5.7184    1.0314 C   0  0  0  1  0  0  0  0  0  0  0  0
   -3.2799    4.4128    1.0931 C   0  0  0  1  0  0  0  0  0  0  0  0
   -3.2756    8.0449    0.8018 O   0  0  0  1  0  0  0  0  0  0  0  0
   -0.6528    7.5555    0.6233 O   0  0  0  1  0  0  0  0  0  0  0  0
   -2.2001    2.0929    0.7123 H   0  0  0  1  0  0  0  0  0  0  0  0
   -0.5692    2.6553    0.4334 H   0  0  0  1  0  0  0  0  0  0  0  0
   -0.0107    5.0037    0.7618 H   0  0  0  1  0  0  0  0  0  0  0  0
   -4.7603    5.9138    1.1065 H   0  0  0  1  0  0  0  0  0  0  0  0
   -3.9525    3.6284    1.2104 H   0  0  0  1  0  0  0  0  0  0  0  0
   -4.2214    8.0770    0.9633 H   0  0  0  1  0  0  0  0  0  0  0  0
    0.1329    7.2751    0.1482 H   0  0  0  1  0  0  0  0  0  0  0  0
  1  4  1  0  0  0  0
  2  4  1  0  0  0  0
  2  5  2  0  0  0  0
  2  6  1  0  0  0  0
  3  4  1  0  0  0  0
  3  7  1  0  0  0  0
  3  8  1  0  0  0  0
  4 19  1  0  0  0  0
  6  9  1  0  0  0  0
  6 12  1  0  0  0  0
  8 10  1  0  0  0  0
  8 11  2  0  0  0  0
  9 13  1  0  0  0  0
  9 14  1  0  0  0  0
  9 15  1  0  0  0  0
 10 16  1  0  0  0  0
 10 17  1  0  0  0  0
 10 18  1  0  0  0  0
 19 20  1  0  0  0  0
 19 28  1  0  0  0  0
 19 29  1  0  0  0  0
 20 21  4  0  0  0  0
 20 25  4  0  0  0  0
 21 22  4  0  0  0  0
 21 30  1  0  0  0  0
 22 23  4  0  0  0  0
 22 27  1  0  0  0  0
 23 24  4  0  0  0  0
 23 26  1  0  0  0  0
 24 25  4  0  0  0  0
 24 31  1  0  0  0  0
 25 32  1  0  0  0  0
 26 33  1  0  0  0  0
 27 34  1  0  0  0  0
M  END
> <BCLConfClusterSize>
1

> <ConfClashScore>
0 

> <ConfOneFourInteractionScore>
-0.990503 

> <ConfScore>
0.142739 

> <ConfScorePBest>
0.00293515 

> <ConfTolerance>
0.948927 

> <RosettaParamsInstructions>
M  ROOT 3
M  POLY_N_BB 3
M  POLY_CA_BB 4
M  POLY_C_BB 2
M  POLY_O_BB 5
M  POLY_IGNORE 9 10 11 12 13 14 15 16 17 18 
M  POLY_UPPER 6
M  POLY_LOWER 8
M  POLY_CHG 0
M  POLY_PROPERTIES ALPHA_AA L_AA PROTEIN AROMATIC POLYMER 
M  END

$$$$



 34 34  0  0  0  0  0  0  0  0999 V2000
    0.3254    3.2586    0.2497 H   0  0  0  1  0  0  0  0  0  0  0  0
    0.7809    1.4613    1.2589 C   0  0  0  1  0  0  0  0  0  0  0  0
   -0.4994    1.6814   -0.8025 N   0  0  0  1  0  0  0  0  0  0  0  0
   -0.1669    2.3313    0.4565 C   0  0  0  1  0  0  0  0  0  0  0  0
    1.5462    1.9569    2.0842 O   0  0  0  1  0  0  0  0  0  0  0  0
    0.7590    0.1431    1.0425 N   0  0  0  1  0  0  0  0  0  0  0  0
   -1.4407    1.5015   -1.0077 H   0  0  0  1  0  0  0  0  0  0  0  0
    0.4338    1.3214   -1.6882 C   0  0  0  1  0  0  0  0  0  0  0  0
    1.5929   -0.7823    1.7950 C   0  0  0  1  0  0  0  0  0  0  0  0
   -0.0677    0.5648   -2.9028 C   0  0  0  1  0  0  0  0  0  0  0  0
    1.6263    1.5782   -1.5448 O   0  0  0  1  0  0  0  0  0  0  0  0
    0.1606   -0.2131    0.3529 H   0  0  0  1  0  0  0  0  0  0  0  0
    1.5260   -0.5556    2.8385 H   0  0  0  1  0  0  0  0  0  0  0  0
    2.6093   -0.6877    1.4742 H   0  0  0  1  0  0  0  0  0  0  0  0
    1.2566   -1.7838    1.6254 H   0  0  0  1  0  0  0  0  0  0  0  0
    0.4581   -0.3632   -2.9876 H   0  0  0  1  0  0  0  0  0  0  0  0
    0.0998    1.1510   -3.7821 H   0  0  0  1  0  0  0  0  0  0  0  0
   -1.1148    0.3726   -2.7956 H   0  0  0  1  0  0  0  0  0  0  0  0
   -1.4316    2.6371    1.2649 C   0  0  0  1  0  0  0  0  0  0  0  0
   -1.9379    4.0505    1.0625 C   0  0  0  1  0  0  0  0  0  0  0  0
   -1.0406    5.0840    0.8429 C   0  0  0  1  0  0  0  0  0  0  0  0
   -1.5030    6.3741    0.6636 C   0  0  0  1  0  0  0  0  0  0  0  0
   -2.8642    6.6337    0.6981 C   0  0  0  1  0  0  0  0  0  0  0  0
   -3.7587    5.6032    0.9170 C   0  0  0  1  0  0  0  0  0  0  0  0
   -3.2952    4.3092    1.0968 C   0  0  0  1  0  0  0  0  0  0  0  0
   -3.3654    7.8806    0.5226 O   0  0  0  1  0  0  0  0  0  0  0  0
   -0.7021    7.4460    0.4488 O   0  0  0  1  0  0  0  0  0  0  0  0
   -1.2138    2.4988    2.3033 H   0  0  0  1  0  0  0  0  0  0  0  0
   -2.1997    1.9543    0.9670 H   0  0  0  1  0  0  0  0  0  0  0  0
   -0.0195    4.8886    0.8130 H   0  0  0  1  0  0  0  0  0  0  0  0
   -4.7798    5.7985    0.9469 H   0  0  0  1  0  0  0  0  0  0  0  0
   -3.9687    3.5332    1.2576 H   0  0  0  1  0  0  0  0  0  0  0  0
   -2.7437    8.5270    0.8650 H   0  0  0  1  0  0  0  0  0  0  0  0
   -1.0688    8.2141    0.8928 H   0  0  0  1  0  0  0  0  0  0  0  0
  1  4  1  0  0  0  0
  2  4  1  0  0  0  0
  2  5  2  0  0  0  0
  2  6  1  0  0  0  0
  3  4  1  0  0  0  0
  3  7  1  0  0  0  0
  3  8  1  0  0  0  0
  4 19  1  0  0  0  0
  6  9  1  0  0  0  0
  6 12  1  0  0  0  0
  8 10  1  0  0  0  0
  8 11  2  0  0  0  0
  9 13  1  0  0  0  0
  9 14  1  0  0  0  0
  9 15  1  0  0  0  0
 10 16  1  0  0  0  0
 10 17  1  0  0  0  0
 10 18  1  0  0  0  0
 19 20  1  0  0  0  0
 19 28  1  0  0  0  0
 19 29  1  0  0  0  0
 20 21  4  0  0  0  0
 20 25  4  0  0  0  0
 21 22  4  0  0  0  0
 21 30  1  0  0  0  0
 22 23  4  0  0  0  0
 22 27  1  0  0  0  0
 23 24  4  0  0  0  0
 23 26  1  0  0  0  0
 24 25  4  0  0  0  0
 24 31  1  0  0  0  0
 25 32  1  0  0  0  0
 26 33  1  0  0  0  0
 27 34  1  0  0  0  0
M  END
> <BCLConfClusterSize>
1

> <ConfClashScore>
0 

> <ConfOneFourInteractionScore>
-0.941392 

> <ConfScore>
0.143929 

> <ConfScorePBest>
0.00290666 

> <ConfTolerance>
0.961084 

> <RosettaParamsInstructions>
M  ROOT 3
M  POLY_N_BB 3
M  POLY_CA_BB 4
M  POLY_C_BB 2
M  POLY_O_BB 5
M  POLY_IGNORE 9 10 11 12 13 14 15 16 17 18 
M  POLY_UPPER 6
M  POLY_LOWER 8
M  POLY_CHG 0
M  POLY_PROPERTIES ALPHA_AA L_AA PROTEIN AROMATIC POLYMER 
M  END

$$$$



 34 34  0  0  0  0  0  0  0  0999 V2000
   -1.2480    1.3056   -0.6504 H   0  0  0  1  0  0  0  0  0  0  0  0
   -3.0608    0.8362    0.2852 C   0  0  0  1  0  0  0  0  0  0  0  0
   -2.6240    2.7025   -1.2439 N   0  0  0  1  0  0  0  0  0  0  0  0
   -2.0529    1.8555   -0.2091 C   0  0  0  1  0  0  0  0  0  0  0  0
   -2.7034   -0.2642    0.7035 O   0  0  0  1  0  0  0  0  0  0  0  0
   -4.3413    1.2142    0.2340 N   0  0  0  1  0  0  0  0  0  0  0  0
   -2.5432    3.6769   -1.1780 H   0  0  0  1  0  0  0  0  0  0  0  0
   -3.2588    2.1551   -2.2843 C   0  0  0  1  0  0  0  0  0  0  0  0
   -5.4298    0.3258    0.6132 C   0  0  0  1  0  0  0  0  0  0  0  0
   -3.7305    3.1282   -3.3590 C   0  0  0  1  0  0  0  0  0  0  0  0
   -3.4590    0.9455   -2.3859 O   0  0  0  1  0  0  0  0  0  0  0  0
   -4.5549    2.1212   -0.0694 H   0  0  0  1  0  0  0  0  0  0  0  0
   -5.0279   -0.5717    1.0349 H   0  0  0  1  0  0  0  0  0  0  0  0
   -6.0104    0.0839   -0.2524 H   0  0  0  1  0  0  0  0  0  0  0  0
   -6.0514    0.8119    1.3358 H   0  0  0  1  0  0  0  0  0  0  0  0
   -2.9841    3.2074   -4.1216 H   0  0  0  1  0  0  0  0  0  0  0  0
   -3.8961    4.0902   -2.9209 H   0  0  0  1  0  0  0  0  0  0  0  0
   -4.6425    2.7698   -3.7888 H   0  0  0  1  0  0  0  0  0  0  0  0
   -1.4567    2.6597    0.9388 C   0  0  0  1  0  0  0  0  0  0  0  0
   -1.9390    4.0852    0.9729 C   0  0  0  1  0  0  0  0  0  0  0  0
   -1.0276    5.1276    0.9075 C   0  0  0  1  0  0  0  0  0  0  0  0
   -1.4709    6.4362    0.9443 C   0  0  0  1  0  0  0  0  0  0  0  0
   -2.8270    6.7064    1.0413 C   0  0  0  1  0  0  0  0  0  0  0  0
   -3.7356    5.6670    1.1065 C   0  0  0  1  0  0  0  0  0  0  0  0
   -3.2913    4.3544    1.0696 C   0  0  0  1  0  0  0  0  0  0  0  0
   -3.3097    7.9723    1.0755 O   0  0  0  1  0  0  0  0  0  0  0  0
   -0.5600    7.4380    0.8842 O   0  0  0  1  0  0  0  0  0  0  0  0
   -0.3917    2.6629    0.8353 H   0  0  0  1  0  0  0  0  0  0  0  0
   -1.7246    2.1873    1.8607 H   0  0  0  1  0  0  0  0  0  0  0  0
   -0.0104    4.9250    0.8308 H   0  0  0  1  0  0  0  0  0  0  0  0
   -4.7527    5.8696    1.1832 H   0  0  0  1  0  0  0  0  0  0  0  0
   -3.9753    3.5724    1.1146 H   0  0  0  1  0  0  0  0  0  0  0  0
   -3.4841    8.2731    0.1807 H   0  0  0  1  0  0  0  0  0  0  0  0
   -0.6389    7.8928    0.0425 H   0  0  0  1  0  0  0  0  0  0  0  0
  1  4  1  0  0  0  0
  2  4  1  0  0  0  0
  2  5  2  0  0  0  0
  2  6  1  0  0  0  0
  3  4  1  0  0  0  0
  3  7  1  0  0  0  0
  3  8  1  0  0  0  0
  4 19  1  0  0  0  0
  6  9  1  0  0  0  0
  6 12  1  0  0  0  0
  8 10  1  0  0  0  0
  8 11  2  0  0  0  0
  9 13  1  0  0  0  0
  9 14  1  0  0  0  0
  9 15  1  0  0  0  0
 10 16  1  0  0  0  0
 10 17  1  0  0  0  0
 10 18  1  0  0  0  0
 19 20  1  0  0  0  0
 19 28  1  0  0  0  0
 19 29  1  0  0  0  0
 20 21  4  0  0  0  0
 20 25  4  0  0  0  0
 21 22  4  0  0  0  0
 21 30  1  0  0  0  0
 22 23  4  0  0  0  0
 22 27  1  0  0  0  0
 23 24  4  0  0  0  0
 23 26  1  0  0  0  0
 24 25  4  0  0  0  0
 24 31  1  0  0  0  0
 25 32  1  0  0  0  0
 26 33  1  0  0  0  0
 27 34  1  0  0  0  0
M  END
> <BCLConfClusterSize>
1

> <ConfClashScore>
0 

> <ConfOneFourInteractionScore>
-0.937067 

> <ConfScore>
0.150844 

> <ConfScorePBest>
0.00287818 

> <ConfTolerance>
0.950286 

> <RosettaParamsInstructions>
M  ROOT 3
M  POLY_N_BB 3
M  POLY_CA_BB 4
M  POLY_C_BB 2
M  POLY_O_BB 5
M  POLY_IGNORE 9 10 11 12 13 14 15 16 17 18 
M  POLY_UPPER 6
M  POLY_LOWER 8
M  POLY_CHG 0
M  POLY_PROPERTIES ALPHA_AA L_AA PROTEIN AROMATIC POLYMER 
M  END

$$$$



 34 34  0  0  0  0  0  0  0  0999 V2000
   -2.2470    2.5377   -0.8853 H   0  0  0  1  0  0  0  0  0  0  0  0
   -0.4028    1.4923   -0.8932 C   0  0  0  1  0  0  0  0  0  0  0  0
   -2.4735    0.7815    0.1967 N   0  0  0  1  0  0  0  0  0  0  0  0
   -1.6823    1.9328   -0.2071 C   0  0  0  1  0  0  0  0  0  0  0  0
    0.0679    2.1281   -1.8354 O   0  0  0  1  0  0  0  0  0  0  0  0
    0.1669    0.3788   -0.4056 N   0  0  0  1  0  0  0  0  0  0  0  0
   -2.6667    0.6294    1.1454 H   0  0  0  1  0  0  0  0  0  0  0  0
   -2.9416   -0.0765   -0.7306 C   0  0  0  1  0  0  0  0  0  0  0  0
    1.3587   -0.2086   -0.9992 C   0  0  0  1  0  0  0  0  0  0  0  0
   -3.8991   -1.1123   -0.1744 C   0  0  0  1  0  0  0  0  0  0  0  0
   -2.6418   -0.0505   -1.9227 O   0  0  0  1  0  0  0  0  0  0  0  0
   -0.2337   -0.0535    0.3774 H   0  0  0  1  0  0  0  0  0  0  0  0
    2.0630    0.5644   -1.2257 H   0  0  0  1  0  0  0  0  0  0  0  0
    1.0923   -0.7228   -1.8989 H   0  0  0  1  0  0  0  0  0  0  0  0
    1.7971   -0.8992   -0.3095 H   0  0  0  1  0  0  0  0  0  0  0  0
   -3.9901   -0.9828    0.8839 H   0  0  0  1  0  0  0  0  0  0  0  0
   -3.5241   -2.0925   -0.3825 H   0  0  0  1  0  0  0  0  0  0  0  0
   -4.8589   -0.9925   -0.6319 H   0  0  0  1  0  0  0  0  0  0  0  0
   -1.3252    2.7735    1.0117 C   0  0  0  1  0  0  0  0  0  0  0  0
   -1.9249    4.1536    0.9723 C   0  0  0  1  0  0  0  0  0  0  0  0
   -1.1065    5.2612    0.8136 C   0  0  0  1  0  0  0  0  0  0  0  0
   -1.6574    6.5285    0.7828 C   0  0  0  1  0  0  0  0  0  0  0  0
   -3.0284    6.6916    0.9052 C   0  0  0  1  0  0  0  0  0  0  0  0
   -3.8442    5.5873    1.0634 C   0  0  0  1  0  0  0  0  0  0  0  0
   -3.2920    4.3162    1.0943 C   0  0  0  1  0  0  0  0  0  0  0  0
   -3.6150    7.9130    0.8757 O   0  0  0  1  0  0  0  0  0  0  0  0
   -0.8361    7.5959    0.6320 O   0  0  0  1  0  0  0  0  0  0  0  0
   -0.2604    2.8661    1.0615 H   0  0  0  1  0  0  0  0  0  0  0  0
   -1.6815    2.2723    1.8874 H   0  0  0  1  0  0  0  0  0  0  0  0
   -0.0782    5.1386    0.7178 H   0  0  0  1  0  0  0  0  0  0  0  0
   -4.8725    5.7099    1.1592 H   0  0  0  1  0  0  0  0  0  0  0  0
   -3.9064    3.4849    1.2093 H   0  0  0  1  0  0  0  0  0  0  0  0
   -3.0702    8.5180    0.3670 H   0  0  0  1  0  0  0  0  0  0  0  0
    0.0779    7.3075    0.6879 H   0  0  0  1  0  0  0  0  0  0  0  0
  1  4  1  0  0  0  0
  2  4  1  0  0  0  0
  2  5  2  0  0  0  0
  2  6  1  0  0  0  0
  3  4  1  0  0  0  0
  3  7  1  0  0  0  0
  3  8  1  0  0  0  0
  4 19  1  0  0  0  0
  6  9  1  0  0  0  0
  6 12  1  0  0  0  0
  8 10  1  0  0  0  0
  8 11  2  0  0  0  0
  9 13  1  0  0  0  0
  9 14  1  0  0  0  0
  9 15  1  0  0  0  0
 10 16  1  0  0  0  0
 10 17  1  0  0  0  0
 10 18  1  0  0  0  0
 19 20  1  0  0  0  0
 19 28  1  0  0  0  0
 19 29  1  0  0  0  0
 20 21  4  0  0  0  0
 20 25  4  0  0  0  0
 21 22  4  0  0  0  0
 21 30  1  0  0  0  0
 22 23  4  0  0  0  0
 22 27  1  0  0  0  0
 23 24  4  0  0  0  0
 23 26  1  0  0  0  0
 24 25  4  0  0  0  0
 24 31  1  0  0  0  0
 25 32  1  0  0  0  0
 26 33  1  0  0  0  0
 27 34  1  0  0  0  0
M  END
> <BCLConfClusterSize>
1

> <ConfClashScore>
0 

> <ConfOneFourInteractionScore>
-0.948834 

> <ConfScore>
0.152242 

> <ConfScorePBest>
0.0028497 

> <ConfTolerance>
0.996663 

> <RosettaParamsInstructions>
M  ROOT 3
M  POLY_N_BB 3
M  POLY_CA_BB 4
M  POLY_C_BB 2
M  POLY_O_BB 5
M  POLY_IGNORE 9 10 11 12 13 14 15 16 17 18 
M  POLY_UPPER 6
M  POLY_LOWER 8
M  POLY_CHG 0
M  POLY_PROPERTIES ALPHA_AA L_AA PROTEIN AROMATIC POLYMER 
M  END

$$$$



 34 34  0  0  0  0  0  0  0  0999 V2000
   -0.4853    2.7709    2.9167 H   0  0  0  1  0  0  0  0  0  0  0  0
    0.0055    0.9031    2.0643 C   0  0  0  1  0  0  0  0  0  0  0  0
    0.9098    3.0722    1.4208 N   0  0  0  1  0  0  0  0  0  0  0  0
   -0.2655    2.3899    1.9413 C   0  0  0  1  0  0  0  0  0  0  0  0
   -0.8663    0.1256    2.4438 O   0  0  0  1  0  0  0  0  0  0  0  0
    1.2449    0.5069    1.7341 N   0  0  0  1  0  0  0  0  0  0  0  0
    1.1529    2.9174    0.4841 H   0  0  0  1  0  0  0  0  0  0  0  0
    1.6773    3.8949    2.1374 C   0  0  0  1  0  0  0  0  0  0  0  0
    1.5883   -0.8951    1.5435 C   0  0  0  1  0  0  0  0  0  0  0  0
    2.8378    4.5275    1.3943 C   0  0  0  1  0  0  0  0  0  0  0  0
    1.4725    4.1366    3.3240 O   0  0  0  1  0  0  0  0  0  0  0  0
    1.9428    1.1849    1.6174 H   0  0  0  1  0  0  0  0  0  0  0  0
    2.5396   -1.0939    1.9912 H   0  0  0  1  0  0  0  0  0  0  0  0
    1.6349   -1.1115    0.4966 H   0  0  0  1  0  0  0  0  0  0  0  0
    0.8429   -1.5103    2.0025 H   0  0  0  1  0  0  0  0  0  0  0  0
    3.7548    4.0801    1.7166 H   0  0  0  1  0  0  0  0  0  0  0  0
    2.8623    5.5775    1.5991 H   0  0  0  1  0  0  0  0  0  0  0  0
    2.7153    4.3715    0.3429 H   0  0  0  1  0  0  0  0  0  0  0  0
   -1.4752    2.6408    1.0559 C   0  0  0  1  0  0  0  0  0  0  0  0
   -1.9417    4.0705    0.9908 C   0  0  0  1  0  0  0  0  0  0  0  0
   -1.0295    5.0878    0.7576 C   0  0  0  1  0  0  0  0  0  0  0  0
   -1.4578    6.4008    0.7032 C   0  0  0  1  0  0  0  0  0  0  0  0
   -2.8002    6.6999    0.8765 C   0  0  0  1  0  0  0  0  0  0  0  0
   -3.7095    5.6854    1.1090 C   0  0  0  1  0  0  0  0  0  0  0  0
   -3.2802    4.3685    1.1636 C   0  0  0  1  0  0  0  0  0  0  0  0
   -3.2684    7.9707    0.8267 O   0  0  0  1  0  0  0  0  0  0  0  0
   -0.6035    7.4296    0.4832 O   0  0  0  1  0  0  0  0  0  0  0  0
   -2.2841    2.0461    1.4260 H   0  0  0  1  0  0  0  0  0  0  0  0
   -1.2278    2.3287    0.0628 H   0  0  0  1  0  0  0  0  0  0  0  0
   -0.0229    4.8632    0.6236 H   0  0  0  1  0  0  0  0  0  0  0  0
   -4.7161    5.9101    1.2431 H   0  0  0  1  0  0  0  0  0  0  0  0
   -3.9652    3.6049    1.3346 H   0  0  0  1  0  0  0  0  0  0  0  0
   -3.5304    8.1806   -0.0727 H   0  0  0  1  0  0  0  0  0  0  0  0
   -0.6786    8.0669    1.1971 H   0  0  0  1  0  0  0  0  0  0  0  0
  1  4  1  0  0  0  0
  2  4  1  0  0  0  0
  2  5  2  0  0  0  0
  2  6  1  0  0  0  0
  3  4  1  0  0  0  0
  3  7  1  0  0  0  0
  3  8  1  0  0  0  0
  4 19  1  0  0  0  0
  6  9  1  0  0  0  0
  6 12  1  0  0  0  0
  8 10  1  0  0  0  0
  8 11  2  0  0  0  0
  9 13  1  0  0  0  0
  9 14  1  0  0  0  0
  9 15  1  0  0  0  0
 10 16  1  0  0  0  0
 10 17  1  0  0  0  0
 10 18  1  0  0  0  0
 19 20  1  0  0  0  0
 19 28  1  0  0  0  0
 19 29  1  0  0  0  0
 20 21  4  0  0  0  0
 20 25  4  0  0  0  0
 21 22  4  0  0  0  0
 21 30  1  0  0  0  0
 22 23  4  0  0  0  0
 22 27  1  0  0  0  0
 23 24  4  0  0  0  0
 23 26  1  0  0  0  0
 24 25  4  0  0  0  0
 24 31  1  0  0  0  0
 25 32  1  0  0  0  0
 26 33  1  0  0  0  0
 27 34  1  0  0  0  0
M  END
> <BCLConfClusterSize>
1

> <ConfClashScore>
0 

> <ConfOneFourInteractionScore>
-0.937775 

> <ConfScore>
0.158734 

> <ConfScorePBest>
0.00282122 

> <ConfTolerance>
0.925583 

> <RosettaParamsInstructions>
M  ROOT 3
M  POLY_N_BB 3
M  POLY_CA_BB 4
M  POLY_C_BB 2
M  POLY_O_BB 5
M  POLY_IGNORE 9 10 11 12 13 14 15 16 17 18 
M  POLY_UPPER 6
M  POLY_LOWER 8
M  POLY_CHG 0
M  POLY_PROPERTIES ALPHA_AA L_AA PROTEIN AROMATIC POLYMER 
M  END

$$$$



 34 34  0  0  0  0  0  0  0  0999 V2000
   -0.8881    1.1840   -0.3259 H   0  0  0  1  0  0  0  0  0  0  0  0
   -2.8127    1.7102   -0.9049 C   0  0  0  1  0  0  0  0  0  0  0  0
   -0.6899    2.8811   -1.4514 N   0  0  0  1  0  0  0  0  0  0  0  0
   -1.4232    2.1045   -0.4323 C   0  0  0  1  0  0  0  0  0  0  0  0
   -3.5419    1.0090   -0.2048 O   0  0  0  1  0  0  0  0  0  0  0  0
   -3.2188    2.1495   -2.1066 N   0  0  0  1  0  0  0  0  0  0  0  0
   -1.1516    3.5814   -1.9582 H   0  0  0  1  0  0  0  0  0  0  0  0
    0.6144    2.6288   -1.6864 C   0  0  0  1  0  0  0  0  0  0  0  0
   -4.4531    1.6901   -2.7257 C   0  0  0  1  0  0  0  0  0  0  0  0
    1.2485    3.4289   -2.8075 C   0  0  0  1  0  0  0  0  0  0  0  0
    1.2630    1.8073   -1.0439 O   0  0  0  1  0  0  0  0  0  0  0  0
   -2.6649    2.8022   -2.5835 H   0  0  0  1  0  0  0  0  0  0  0  0
   -5.1925    1.5265   -1.9698 H   0  0  0  1  0  0  0  0  0  0  0  0
   -4.2702    0.7751   -3.2493 H   0  0  0  1  0  0  0  0  0  0  0  0
   -4.8042    2.4310   -3.4133 H   0  0  0  1  0  0  0  0  0  0  0  0
    0.6118    4.2493   -3.0653 H   0  0  0  1  0  0  0  0  0  0  0  0
    1.3831    2.7998   -3.6625 H   0  0  0  1  0  0  0  0  0  0  0  0
    2.1983    3.8024   -2.4859 H   0  0  0  1  0  0  0  0  0  0  0  0
   -1.3666    2.7592    0.9417 C   0  0  0  1  0  0  0  0  0  0  0  0
   -1.9379    4.1518    0.9554 C   0  0  0  1  0  0  0  0  0  0  0  0
   -1.0609    5.2127    0.7915 C   0  0  0  1  0  0  0  0  0  0  0  0
   -1.5366    6.5104    0.8021 C   0  0  0  1  0  0  0  0  0  0  0  0
   -2.8912    6.7508    0.9713 C   0  0  0  1  0  0  0  0  0  0  0  0
   -3.7655    5.6929    1.1347 C   0  0  0  1  0  0  0  0  0  0  0  0
   -3.2887    4.3914    1.1240 C   0  0  0  1  0  0  0  0  0  0  0  0
   -3.4053    8.0047    0.9835 O   0  0  0  1  0  0  0  0  0  0  0  0
   -0.7180    7.5798    0.6511 O   0  0  0  1  0  0  0  0  0  0  0  0
   -0.3443    2.8074    1.2541 H   0  0  0  1  0  0  0  0  0  0  0  0
   -1.9221    2.1564    1.6294 H   0  0  0  1  0  0  0  0  0  0  0  0
   -0.0451    5.0322    0.6606 H   0  0  0  1  0  0  0  0  0  0  0  0
   -4.7813    5.8734    1.2656 H   0  0  0  1  0  0  0  0  0  0  0  0
   -3.9472    3.5953    1.2430 H   0  0  0  1  0  0  0  0  0  0  0  0
   -3.9261    8.1452    0.1895 H   0  0  0  1  0  0  0  0  0  0  0  0
    0.1911    7.2798    0.5783 H   0  0  0  1  0  0  0  0  0  0  0  0
  1  4  1  0  0  0  0
  2  4  1  0  0  0  0
  2  5  2  0  0  0  0
  2  6  1  0  0  0  0
  3  4  1  0  0  0  0
  3  7  1  0  0  0  0
  3  8  1  0  0  0  0
  4 19  1  0  0  0  0
  6  9  1  0  0  0  0
  6 12  1  0  0  0  0
  8 10  1  0  0  0  0
  8 11  2  0  0  0  0
  9 13  1  0  0  0  0
  9 14  1  0  0  0  0
  9 15  1  0  0  0  0
 10 16  1  0  0  0  0
 10 17  1  0  0  0  0
 10 18  1  0  0  0  0
 19 20  1  0  0  0  0
 19 28  1  0  0  0  0
 19 29  1  0  0  0  0
 20 21  4  0  0  0  0
 20 25  4  0  0  0  0
 21 22  4  0  0  0  0
 21 30  1  0  0  0  0
 22 23  4  0  0  0  0
 22 27  1  0  0  0  0
 23 24  4  0  0  0  0
 23 26  1  0  0  0  0
 24 25  4  0  0  0  0
 24 31  1  0  0  0  0
 25 32  1  0  0  0  0
 26 33  1  0  0  0  0
 27 34  1  0  0  0  0
M  END
> <BCLConfClusterSize>
1

> <ConfClashScore>
0 

> <ConfOneFourInteractionScore>
-0.932585 

> <ConfScore>
0.158953 

> <ConfScorePBest>
0.00279274 

> <ConfTolerance>
0.512187 

> <RosettaParamsInstructions>
M  ROOT 3
M  POLY_N_BB 3
M  POLY_CA_BB 4
M  POLY_C_BB 2
M  POLY_O_BB 5
M  POLY_IGNORE 9 10 11 12 13 14 15 16 17 18 
M  POLY_UPPER 6
M  POLY_LOWER 8
M  POLY_CHG 0
M  POLY_PROPERTIES ALPHA_AA L_AA PROTEIN AROMATIC POLYMER 
M  END

$$$$



 34 34  0  0  0  0  0  0  0  0999 V2000
   -0.8873    2.4549   -0.7705 H   0  0  0  1  0  0  0  0  0  0  0  0
   -0.8640    0.5014   -0.0717 C   0  0  0  1  0  0  0  0  0  0  0  0
   -2.8395    1.8437   -0.7481 N   0  0  0  1  0  0  0  0  0  0  0  0
   -1.5051    1.8748   -0.1174 C   0  0  0  1  0  0  0  0  0  0  0  0
   -1.5468   -0.5210   -0.0427 O   0  0  0  1  0  0  0  0  0  0  0  0
    0.4719    0.4845   -0.0653 N   0  0  0  1  0  0  0  0  0  0  0  0
   -2.9381    2.1805   -1.6631 H   0  0  0  1  0  0  0  0  0  0  0  0
   -3.9174    1.3723   -0.1149 C   0  0  0  1  0  0  0  0  0  0  0  0
    1.2333   -0.7533    0.0125 C   0  0  0  1  0  0  0  0  0  0  0  0
   -5.2065    1.3608   -0.9462 C   0  0  0  1  0  0  0  0  0  0  0  0
   -3.9234    1.0370    1.0666 O   0  0  0  1  0  0  0  0  0  0  0  0
    0.9560    1.3351   -0.1148 H   0  0  0  1  0  0  0  0  0  0  0  0
    0.6352   -1.5123    0.4719 H   0  0  0  1  0  0  0  0  0  0  0  0
    2.1157   -0.5930    0.5961 H   0  0  0  1  0  0  0  0  0  0  0  0
    1.5089   -1.0648   -0.9734 H   0  0  0  1  0  0  0  0  0  0  0  0
   -5.6489    2.3350   -0.9327 H   0  0  0  1  0  0  0  0  0  0  0  0
   -5.8922    0.6522   -0.5307 H   0  0  0  1  0  0  0  0  0  0  0  0
   -4.9777    1.0872   -1.9550 H   0  0  0  1  0  0  0  0  0  0  0  0
   -1.5100    2.6330    1.2036 C   0  0  0  1  0  0  0  0  0  0  0  0
   -1.9273    4.0814    1.0547 C   0  0  0  1  0  0  0  0  0  0  0  0
   -1.0066    5.1099    0.9281 C   0  0  0  1  0  0  0  0  0  0  0  0
   -1.4424    6.4154    0.8004 C   0  0  0  1  0  0  0  0  0  0  0  0
   -2.7999    6.6955    0.7936 C   0  0  0  1  0  0  0  0  0  0  0  0
   -3.7177    5.6699    0.9199 C   0  0  0  1  0  0  0  0  0  0  0  0
   -3.2809    4.3606    1.0480 C   0  0  0  1  0  0  0  0  0  0  0  0
   -3.1051    8.0089    0.6574 O   0  0  0  1  0  0  0  0  0  0  0  0
   -0.5810    7.4546    0.6790 O   0  0  0  1  0  0  0  0  0  0  0  0
   -0.5234    2.6035    1.6168 H   0  0  0  1  0  0  0  0  0  0  0  0
   -2.1916    2.1491    1.8715 H   0  0  0  1  0  0  0  0  0  0  0  0
    0.0119    4.8994    0.9291 H   0  0  0  1  0  0  0  0  0  0  0  0
   -4.7361    5.8805    0.9189 H   0  0  0  1  0  0  0  0  0  0  0  0
   -3.9716    3.5884    1.1390 H   0  0  0  1  0  0  0  0  0  0  0  0
   -3.6789    8.2809    1.3774 H   0  0  0  1  0  0  0  0  0  0  0  0
   -0.7336    7.9013   -0.1569 H   0  0  0  1  0  0  0  0  0  0  0  0
  1  4  1  0  0  0  0
  2  4  1  0  0  0  0
  2  5  2  0  0  0  0
  2  6  1  0  0  0  0
  3  4  1  0  0  0  0
  3  7  1  0  0  0  0
  3  8  1  0  0  0  0
  4 19  1  0  0  0  0
  6  9  1  0  0  0  0
  6 12  1  0  0  0  0
  8 10  1  0  0  0  0
  8 11  2  0  0  0  0
  9 13  1  0  0  0  0
  9 14  1  0  0  0  0
  9 15  1  0  0  0  0
 10 16  1  0  0  0  0
 10 17  1  0  0  0  0
 10 18  1  0  0  0  0
 19 20  1  0  0  0  0
 19 28  1  0  0  0  0
 19 29  1  0  0  0  0
 20 21  4  0  0  0  0
 20 25  4  0  0  0  0
 21 22  4  0  0  0  0
 21 30  1  0  0  0  0
 22 23  4  0  0  0  0
 22 27  1  0  0  0  0
 23 24  4  0  0  0  0
 23 26  1  0  0  0  0
 24 25  4  0  0  0  0
 24 31  1  0  0  0  0
 25 32  1  0  0  0  0
 26 33  1  0  0  0  0
 27 34  1  0  0  0  0
M  END
> <BCLConfClusterSize>
1

> <ConfClashScore>
0 

> <ConfOneFourInteractionScore>
-0.984199 

> <ConfScore>
0.167494 

> <ConfScorePBest>
0.00276426 

> <ConfTolerance>
0.597675 

> <RosettaParamsInstructions>
M  ROOT 3
M  POLY_N_BB 3
M  POLY_CA_BB 4
M  POLY_C_BB 2
M  POLY_O_BB 5
M  POLY_IGNORE 9 10 11 12 13 14 15 16 17 18 
M  POLY_UPPER 6
M  POLY_LOWER 8
M  POLY_CHG 0
M  POLY_PROPERTIES ALPHA_AA L_AA PROTEIN AROMATIC POLYMER 
M  END

$$$$



 34 34  0  0  0  0  0  0  0  0999 V2000
   -0.7539    1.2587    2.4148 H   0  0  0  1  0  0  0  0  0  0  0  0
   -0.4406    3.1305    3.3389 C   0  0  0  1  0  0  0  0  0  0  0  0
   -2.5710    1.9769    3.0880 N   0  0  0  1  0  0  0  0  0  0  0  0
   -1.2684    2.1946    2.4797 C   0  0  0  1  0  0  0  0  0  0  0  0
    0.3608    3.9173    2.8366 O   0  0  0  1  0  0  0  0  0  0  0  0
   -0.6430    3.0390    4.6628 N   0  0  0  1  0  0  0  0  0  0  0  0
   -2.8877    2.6089    3.7667 H   0  0  0  1  0  0  0  0  0  0  0  0
   -3.3546    0.9408    2.7523 C   0  0  0  1  0  0  0  0  0  0  0  0
    0.0879    3.8567    5.6193 C   0  0  0  1  0  0  0  0  0  0  0  0
   -4.6159    0.7864    3.5924 C   0  0  0  1  0  0  0  0  0  0  0  0
   -3.0652    0.1163    1.8862 O   0  0  0  1  0  0  0  0  0  0  0  0
   -1.3060    2.3992    4.9968 H   0  0  0  1  0  0  0  0  0  0  0  0
    0.4329    4.7476    5.1375 H   0  0  0  1  0  0  0  0  0  0  0  0
    0.9259    3.3057    5.9922 H   0  0  0  1  0  0  0  0  0  0  0  0
   -0.5578    4.1180    6.4316 H   0  0  0  1  0  0  0  0  0  0  0  0
   -5.2151    1.6683    3.5025 H   0  0  0  1  0  0  0  0  0  0  0  0
   -4.3458    0.6421    4.6177 H   0  0  0  1  0  0  0  0  0  0  0  0
   -5.1728   -0.0596    3.2473 H   0  0  0  1  0  0  0  0  0  0  0  0
   -1.4127    2.7494    1.0720 C   0  0  0  1  0  0  0  0  0  0  0  0
   -1.9250    4.1622    0.9847 C   0  0  0  1  0  0  0  0  0  0  0  0
   -1.0469    5.2039    0.7288 C   0  0  0  1  0  0  0  0  0  0  0  0
   -1.5173    6.5014    0.6540 C   0  0  0  1  0  0  0  0  0  0  0  0
   -2.8677    6.7605    0.8296 C   0  0  0  1  0  0  0  0  0  0  0  0
   -3.7430    5.7218    1.0847 C   0  0  0  1  0  0  0  0  0  0  0  0
   -3.2715    4.4204    1.1597 C   0  0  0  1  0  0  0  0  0  0  0  0
   -3.3052    8.0404    0.7463 O   0  0  0  1  0  0  0  0  0  0  0  0
   -0.6008    7.4685    0.4062 O   0  0  0  1  0  0  0  0  0  0  0  0
   -2.0911    2.1186    0.5366 H   0  0  0  1  0  0  0  0  0  0  0  0
   -0.4508    2.7176    0.6045 H   0  0  0  1  0  0  0  0  0  0  0  0
   -0.0344    5.0091    0.5931 H   0  0  0  1  0  0  0  0  0  0  0  0
   -4.7555    5.9166    1.2203 H   0  0  0  1  0  0  0  0  0  0  0  0
   -3.9309    3.6384    1.3477 H   0  0  0  1  0  0  0  0  0  0  0  0
   -4.2304    8.0468    0.4903 H   0  0  0  1  0  0  0  0  0  0  0  0
    0.1620    7.3404    0.9749 H   0  0  0  1  0  0  0  0  0  0  0  0
  1  4  1  0  0  0  0
  2  4  1  0  0  0  0
  2  5  2  0  0  0  0
  2  6  1  0  0  0  0
  3  4  1  0  0  0  0
  3  7  1  0  0  0  0
  3  8  1  0  0  0  0
  4 19  1  0  0  0  0
  6  9  1  0  0  0  0
  6 12  1  0  0  0  0
  8 10  1  0  0  0  0
  8 11  2  0  0  0  0
  9 13  1  0  0  0  0
  9 14  1  0  0  0  0
  9 15  1  0  0  0  0
 10 16  1  0  0  0  0
 10 17  1  0  0  0  0
 10 18  1  0  0  0  0
 19 20  1  0  0  0  0
 19 28  1  0  0  0  0
 19 29  1  0  0  0  0
 20 21  4  0  0  0  0
 20 25  4  0  0  0  0
 21 22  4  0  0  0  0
 21 30  1  0  0  0  0
 22 23  4  0  0  0  0
 22 27  1  0  0  0  0
 23 24  4  0  0  0  0
 23 26  1  0  0  0  0
 24 25  4  0  0  0  0
 24 31  1  0  0  0  0
 25 32  1  0  0  0  0
 26 33  1  0  0  0  0
 27 34  1  0  0  0  0
M  END
> <BCLConfClusterSize>
1

> <ConfClashScore>
0 

> <ConfOneFourInteractionScore>
-0.957364 

> <ConfScore>
0.168424 

> <ConfScorePBest>
0.00273578 

> <ConfTolerance>
0.687425 

> <RosettaParamsInstructions>
M  ROOT 3
M  POLY_N_BB 3
M  POLY_CA_BB 4
M  POLY_C_BB 2
M  POLY_O_BB 5
M  POLY_IGNORE 9 10 11 12 13 14 15 16 17 18 
M  POLY_UPPER 6
M  POLY_LOWER 8
M  POLY_CHG 0
M  POLY_PROPERTIES ALPHA_AA L_AA PROTEIN AROMATIC POLYMER 
M  END

$$$$



 34 34  0  0  0  0  0  0  0  0999 V2000
   -1.7425    2.4090    3.0103 H   0  0  0  1  0  0  0  0  0  0  0  0
   -0.9174    0.6136    2.2479 C   0  0  0  1  0  0  0  0  0  0  0  0
    0.2722    2.7255    2.6700 N   0  0  0  1  0  0  0  0  0  0  0  0
   -1.0023    2.1366    2.2872 C   0  0  0  1  0  0  0  0  0  0  0  0
    0.1699    0.0384    2.2400 O   0  0  0  1  0  0  0  0  0  0  0  0
   -2.0771   -0.0465    2.3123 N   0  0  0  1  0  0  0  0  0  0  0  0
    1.0343    2.6415    2.0597 H   0  0  0  1  0  0  0  0  0  0  0  0
    0.4395    3.3766    3.8246 C   0  0  0  1  0  0  0  0  0  0  0  0
   -3.3324    0.6866    2.3810 C   0  0  0  1  0  0  0  0  0  0  0  0
    1.8220    3.9523    4.0619 C   0  0  0  1  0  0  0  0  0  0  0  0
   -0.4590    3.5106    4.6543 O   0  0  0  1  0  0  0  0  0  0  0  0
   -2.0825   -1.0265    2.3133 H   0  0  0  1  0  0  0  0  0  0  0  0
   -3.3106    1.4982    1.6840 H   0  0  0  1  0  0  0  0  0  0  0  0
   -3.4674    1.0702    3.3707 H   0  0  0  1  0  0  0  0  0  0  0  0
   -4.1421    0.0304    2.1387 H   0  0  0  1  0  0  0  0  0  0  0  0
    2.5606    3.2706    3.6950 H   0  0  0  1  0  0  0  0  0  0  0  0
    1.9688    4.1064    5.1105 H   0  0  0  1  0  0  0  0  0  0  0  0
    1.9123    4.8863    3.5476 H   0  0  0  1  0  0  0  0  0  0  0  0
   -1.4201    2.7175    0.9462 C   0  0  0  1  0  0  0  0  0  0  0  0
   -1.9277    4.1340    0.9867 C   0  0  0  1  0  0  0  0  0  0  0  0
   -1.0666    5.1936    0.7472 C   0  0  0  1  0  0  0  0  0  0  0  0
   -1.5561    6.4854    0.7037 C   0  0  0  1  0  0  0  0  0  0  0  0
   -2.9087    6.7211    0.8941 C   0  0  0  1  0  0  0  0  0  0  0  0
   -3.7671    5.6645    1.1328 C   0  0  0  1  0  0  0  0  0  0  0  0
   -3.2765    4.3688    1.1765 C   0  0  0  1  0  0  0  0  0  0  0  0
   -3.4360    7.9689    0.8553 O   0  0  0  1  0  0  0  0  0  0  0  0
   -0.6935    7.5050    0.4732 O   0  0  0  1  0  0  0  0  0  0  0  0
   -2.1970    2.0997    0.5465 H   0  0  0  1  0  0  0  0  0  0  0  0
   -0.5712    2.6895    0.2955 H   0  0  0  1  0  0  0  0  0  0  0  0
   -0.0523    5.0165    0.6004 H   0  0  0  1  0  0  0  0  0  0  0  0
   -4.7814    5.8416    1.2796 H   0  0  0  1  0  0  0  0  0  0  0  0
   -3.9231    3.5735    1.3522 H   0  0  0  1  0  0  0  0  0  0  0  0
   -3.5986    8.2199   -0.0570 H   0  0  0  1  0  0  0  0  0  0  0  0
   -0.0713    7.5693    1.2015 H   0  0  0  1  0  0  0  0  0  0  0  0
  1  4  1  0  0  0  0
  2  4  1  0  0  0  0
  2  5  2  0  0  0  0
  2  6  1  0  0  0  0
  3  4  1  0  0  0  0
  3  7  1  0  0  0  0
  3  8  1  0  0  0  0
  4 19  1  0  0  0  0
  6  9  1  0  0  0  0
  6 12  1  0  0  0  0
  8 10  1  0  0  0  0
  8 11  2  0  0  0  0
  9 13  1  0  0  0  0
  9 14  1  0  0  0  0
  9 15  1  0  0  0  0
 10 16  1  0  0  0  0
 10 17  1  0  0  0  0
 10 18  1  0  0  0  0
 19 20  1  0  0  0  0
 19 28  1  0  0  0  0
 19 29  1  0  0  0  0
 20 21  4  0  0  0  0
 20 25  4  0  0  0  0
 21 22  4  0  0  0  0
 21 30  1  0  0  0  0
 22 23  4  0  0  0  0
 22 27  1  0  0  0  0
 23 24  4  0  0  0  0
 23 26  1  0  0  0  0
 24 25  4  0  0  0  0
 24 31  1  0  0  0  0
 25 32  1  0  0  0  0
 26 33  1  0  0  0  0
 27 34  1  0  0  0  0
M  END
> <BCLConfClusterSize>
1

> <ConfClashScore>
0 

> <ConfOneFourInteractionScore>
-0.978127 

> <ConfScore>
0.172131 

> <ConfScorePBest>
0.0027073 

> <ConfTolerance>
1.05803 

> <RosettaParamsInstructions>
M  ROOT 3
M  POLY_N_BB 3
M  POLY_CA_BB 4
M  POLY_C_BB 2
M  POLY_O_BB 5
M  POLY_IGNORE 9 10 11 12 13 14 15 16 17 18 
M  POLY_UPPER 6
M  POLY_LOWER 8
M  POLY_CHG 0
M  POLY_PROPERTIES ALPHA_AA L_AA PROTEIN AROMATIC POLYMER 
M  END

$$$$



 34 34  0  0  0  0  0  0  0  0999 V2000
   -2.0450    2.3123    3.1500 H   0  0  0  1  0  0  0  0  0  0  0  0
   -0.4342    1.0164    2.7472 C   0  0  0  1  0  0  0  0  0  0  0  0
   -0.3309    3.4482    3.2173 N   0  0  0  1  0  0  0  0  0  0  0  0
   -1.1146    2.3742    2.6253 C   0  0  0  1  0  0  0  0  0  0  0  0
    0.7817    0.9405    2.8128 O   0  0  0  1  0  0  0  0  0  0  0  0
   -1.2172   -0.0645    2.6864 N   0  0  0  1  0  0  0  0  0  0  0  0
   -0.7435    4.0524    3.8693 H   0  0  0  1  0  0  0  0  0  0  0  0
    0.9623    3.6137    2.8703 C   0  0  0  1  0  0  0  0  0  0  0  0
   -0.6767   -1.4155    2.6601 C   0  0  0  1  0  0  0  0  0  0  0  0
    1.6680    4.7050    3.6516 C   0  0  0  1  0  0  0  0  0  0  0  0
    1.5450    2.9591    2.0069 O   0  0  0  1  0  0  0  0  0  0  0  0
   -2.1893    0.0566    2.6586 H   0  0  0  1  0  0  0  0  0  0  0  0
    0.2375   -1.4237    2.1042 H   0  0  0  1  0  0  0  0  0  0  0  0
   -1.3821   -2.0726    2.1959 H   0  0  0  1  0  0  0  0  0  0  0  0
   -0.4881   -1.7435    3.6610 H   0  0  0  1  0  0  0  0  0  0  0  0
    2.7243    4.5359    3.6270 H   0  0  0  1  0  0  0  0  0  0  0  0
    1.3287    4.6932    4.6663 H   0  0  0  1  0  0  0  0  0  0  0  0
    1.4490    5.6560    3.2128 H   0  0  0  1  0  0  0  0  0  0  0  0
   -1.4341    2.7019    1.1726 C   0  0  0  1  0  0  0  0  0  0  0  0
   -1.9288    4.1282    1.0398 C   0  0  0  1  0  0  0  0  0  0  0  0
   -1.0212    5.1679    0.9101 C   0  0  0  1  0  0  0  0  0  0  0  0
   -1.4729    6.4690    0.7944 C   0  0  0  1  0  0  0  0  0  0  0  0
   -2.8336    6.7337    0.8027 C   0  0  0  1  0  0  0  0  0  0  0  0
   -3.7383    5.6970    0.9320 C   0  0  0  1  0  0  0  0  0  0  0  0
   -3.2855    4.3920    1.0481 C   0  0  0  1  0  0  0  0  0  0  0  0
   -3.3244    7.9916    0.6870 O   0  0  0  1  0  0  0  0  0  0  0  0
   -0.6247    7.5186    0.6706 O   0  0  0  1  0  0  0  0  0  0  0  0
   -2.1920    2.0335    0.8208 H   0  0  0  1  0  0  0  0  0  0  0  0
   -0.5495    2.5811    0.5830 H   0  0  0  1  0  0  0  0  0  0  0  0
   -0.0004    4.9689    0.8998 H   0  0  0  1  0  0  0  0  0  0  0  0
   -4.7591    5.8960    0.9423 H   0  0  0  1  0  0  0  0  0  0  0  0
   -3.9665    3.6115    1.1414 H   0  0  0  1  0  0  0  0  0  0  0  0
   -3.8645    8.1967    1.4537 H   0  0  0  1  0  0  0  0  0  0  0  0
   -0.2253    7.5067   -0.2023 H   0  0  0  1  0  0  0  0  0  0  0  0
  1  4  1  0  0  0  0
  2  4  1  0  0  0  0
  2  5  2  0  0  0  0
  2  6  1  0  0  0  0
  3  4  1  0  0  0  0
  3  7  1  0  0  0  0
  3  8  1  0  0  0  0
  4 19  1  0  0  0  0
  6  9  1  0  0  0  0
  6 12  1  0  0  0  0
  8 10  1  0  0  0  0
  8 11  2  0  0  0  0
  9 13  1  0  0  0  0
  9 14  1  0  0  0  0
  9 15  1  0  0  0  0
 10 16  1  0  0  0  0
 10 17  1  0  0  0  0
 10 18  1  0  0  0  0
 19 20  1  0  0  0  0
 19 28  1  0  0  0  0
 19 29  1  0  0  0  0
 20 21  4  0  0  0  0
 20 25  4  0  0  0  0
 21 22  4  0  0  0  0
 21 30  1  0  0  0  0
 22 23  4  0  0  0  0
 22 27  1  0  0  0  0
 23 24  4  0  0  0  0
 23 26  1  0  0  0  0
 24 25  4  0  0  0  0
 24 31  1  0  0  0  0
 25 32  1  0  0  0  0
 26 33  1  0  0  0  0
 27 34  1  0  0  0  0
M  END
> <BCLConfClusterSize>
1

> <ConfClashScore>
0 

> <ConfOneFourInteractionScore>
-0.972962 

> <ConfScore>
0.176124 

> <ConfScorePBest>
0.00267882 

> <ConfTolerance>
0.930722 

> <RosettaParamsInstructions>
M  ROOT 3
M  POLY_N_BB 3
M  POLY_CA_BB 4
M  POLY_C_BB 2
M  POLY_O_BB 5
M  POLY_IGNORE 9 10 11 12 13 14 15 16 17 18 
M  POLY_UPPER 6
M  POLY_LOWER 8
M  POLY_CHG 0
M  POLY_PROPERTIES ALPHA_AA L_AA PROTEIN AROMATIC POLYMER 
M  END

$$$$



 34 34  0  0  0  0  0  0  0  0999 V2000
   -1.9485    0.6766    1.3808 H   0  0  0  1  0  0  0  0  0  0  0  0
   -3.2124    1.6918    2.7283 C   0  0  0  1  0  0  0  0  0  0  0  0
   -3.4147    1.6558    0.3168 N   0  0  0  1  0  0  0  0  0  0  0  0
   -2.4557    1.6183    1.4093 C   0  0  0  1  0  0  0  0  0  0  0  0
   -4.2879    2.2820    2.8150 O   0  0  0  1  0  0  0  0  0  0  0  0
   -2.6329    1.0796    3.7648 N   0  0  0  1  0  0  0  0  0  0  0  0
   -3.2847    2.2810   -0.4266 H   0  0  0  1  0  0  0  0  0  0  0  0
   -4.4815    0.8329    0.3245 C   0  0  0  1  0  0  0  0  0  0  0  0
   -3.1434    1.2832    5.1123 C   0  0  0  1  0  0  0  0  0  0  0  0
   -5.3921    0.9236   -0.8845 C   0  0  0  1  0  0  0  0  0  0  0  0
   -4.7179    0.0513    1.2447 O   0  0  0  1  0  0  0  0  0  0  0  0
   -1.8624    0.4922    3.6173 H   0  0  0  1  0  0  0  0  0  0  0  0
   -2.9984    2.3039    5.3988 H   0  0  0  1  0  0  0  0  0  0  0  0
   -2.6196    0.6443    5.7922 H   0  0  0  1  0  0  0  0  0  0  0  0
   -4.1877    1.0511    5.1367 H   0  0  0  1  0  0  0  0  0  0  0  0
   -6.3979    0.7065   -0.5912 H   0  0  0  1  0  0  0  0  0  0  0  0
   -5.0756    0.2167   -1.6228 H   0  0  0  1  0  0  0  0  0  0  0  0
   -5.3452    1.9116   -1.2927 H   0  0  0  1  0  0  0  0  0  0  0  0
   -1.4001    2.7125    1.2551 C   0  0  0  1  0  0  0  0  0  0  0  0
   -1.9378    4.1035    1.0501 C   0  0  0  1  0  0  0  0  0  0  0  0
   -1.0329    5.1089    0.7470 C   0  0  0  1  0  0  0  0  0  0  0  0
   -1.4772    6.4035    0.5550 C   0  0  0  1  0  0  0  0  0  0  0  0
   -2.8281    6.6956    0.6602 C   0  0  0  1  0  0  0  0  0  0  0  0
   -3.7302    5.6931    0.9624 C   0  0  0  1  0  0  0  0  0  0  0  0
   -3.2849    4.3946    1.1550 C   0  0  0  1  0  0  0  0  0  0  0  0
   -3.1909    7.9850    0.4540 O   0  0  0  1  0  0  0  0  0  0  0  0
   -0.6307    7.4205    0.2622 O   0  0  0  1  0  0  0  0  0  0  0  0
   -0.7906    2.4665    0.4108 H   0  0  0  1  0  0  0  0  0  0  0  0
   -0.7989    2.7181    2.1402 H   0  0  0  1  0  0  0  0  0  0  0  0
   -0.0198    4.8890    0.6641 H   0  0  0  1  0  0  0  0  0  0  0  0
   -4.7433    5.9129    1.0454 H   0  0  0  1  0  0  0  0  0  0  0  0
   -3.9642    3.6395    1.3785 H   0  0  0  1  0  0  0  0  0  0  0  0
   -3.9289    8.2058    1.0268 H   0  0  0  1  0  0  0  0  0  0  0  0
   -0.3102    7.8153    1.0765 H   0  0  0  1  0  0  0  0  0  0  0  0
  1  4  1  0  0  0  0
  2  4  1  0  0  0  0
  2  5  2  0  0  0  0
  2  6  1  0  0  0  0
  3  4  1  0  0  0  0
  3  7  1  0  0  0  0
  3  8  1  0  0  0  0
  4 19  1  0  0  0  0
  6  9  1  0  0  0  0
  6 12  1  0  0  0  0
  8 10  1  0  0  0  0
  8 11  2  0  0  0  0
  9 13  1  0  0  0  0
  9 14  1  0  0  0  0
  9 15  1  0  0  0  0
 10 16  1  0  0  0  0
 10 17  1  0  0  0  0
 10 18  1  0  0  0  0
 19 20  1  0  0  0  0
 19 28  1  0  0  0  0
 19 29  1  0  0  0  0
 20 21  4  0  0  0  0
 20 25  4  0  0  0  0
 21 22  4  0  0  0  0
 21 30  1  0  0  0  0
 22 23  4  0  0  0  0
 22 27  1  0  0  0  0
 23 24  4  0  0  0  0
 23 26  1  0  0  0  0
 24 25  4  0  0  0  0
 24 31  1  0  0  0  0
 25 32  1  0  0  0  0
 26 33  1  0  0  0  0
 27 34  1  0  0  0  0
M  END
> <BCLConfClusterSize>
1

> <ConfClashScore>
0 

> <ConfOneFourInteractionScore>
-0.97054 

> <ConfScore>
0.182128 

> <ConfScorePBest>
0.00265034 

> <ConfTolerance>
1.18775 

> <RosettaParamsInstructions>
M  ROOT 3
M  POLY_N_BB 3
M  POLY_CA_BB 4
M  POLY_C_BB 2
M  POLY_O_BB 5
M  POLY_IGNORE 9 10 11 12 13 14 15 16 17 18 
M  POLY_UPPER 6
M  POLY_LOWER 8
M  POLY_CHG 0
M  POLY_PROPERTIES ALPHA_AA L_AA PROTEIN AROMATIC POLYMER 
M  END

$$$$



 34 34  0  0  0  0  0  0  0  0999 V2000
   -1.0008    2.3717   -0.9684 H   0  0  0  1  0  0  0  0  0  0  0  0
   -1.3476    0.4691   -0.1083 C   0  0  0  1  0  0  0  0  0  0  0  0
   -3.0416    2.1209   -0.7248 N   0  0  0  1  0  0  0  0  0  0  0  0
   -1.6729    1.9505   -0.2503 C   0  0  0  1  0  0  0  0  0  0  0  0
   -0.4758    0.0792    0.6640 O   0  0  0  1  0  0  0  0  0  0  0  0
   -2.0668   -0.3589   -0.8713 N   0  0  0  1  0  0  0  0  0  0  0  0
   -3.7589    1.6119   -0.2926 H   0  0  0  1  0  0  0  0  0  0  0  0
   -3.3514    2.9469   -1.7282 C   0  0  0  1  0  0  0  0  0  0  0  0
   -1.9024   -1.7991   -0.7429 C   0  0  0  1  0  0  0  0  0  0  0  0
   -4.8294    3.2269   -1.9185 C   0  0  0  1  0  0  0  0  0  0  0  0
   -2.5125    3.4530   -2.4552 O   0  0  0  1  0  0  0  0  0  0  0  0
   -2.7065    0.0045   -1.5187 H   0  0  0  1  0  0  0  0  0  0  0  0
   -0.9275   -2.0791   -1.0836 H   0  0  0  1  0  0  0  0  0  0  0  0
   -2.6430   -2.2965   -1.3337 H   0  0  0  1  0  0  0  0  0  0  0  0
   -2.0158   -2.0807    0.2832 H   0  0  0  1  0  0  0  0  0  0  0  0
   -5.3391    2.3145   -2.1484 H   0  0  0  1  0  0  0  0  0  0  0  0
   -4.9602    3.9205   -2.7226 H   0  0  0  1  0  0  0  0  0  0  0  0
   -5.2321    3.6430   -1.0188 H   0  0  0  1  0  0  0  0  0  0  0  0
   -1.4610    2.6782    1.0812 C   0  0  0  1  0  0  0  0  0  0  0  0
   -1.9357    4.1039    0.9917 C   0  0  0  1  0  0  0  0  0  0  0  0
   -1.0322    5.1201    0.7220 C   0  0  0  1  0  0  0  0  0  0  0  0
   -1.4679    6.4295    0.6453 C   0  0  0  1  0  0  0  0  0  0  0  0
   -2.8090    6.7260    0.8326 C   0  0  0  1  0  0  0  0  0  0  0  0
   -3.7096    5.7127    1.1014 C   0  0  0  1  0  0  0  0  0  0  0  0
   -3.2729    4.3994    1.1785 C   0  0  0  1  0  0  0  0  0  0  0  0
   -3.2125    8.0170    0.7472 O   0  0  0  1  0  0  0  0  0  0  0  0
   -0.6586    7.4867    0.3920 O   0  0  0  1  0  0  0  0  0  0  0  0
   -0.4188    2.6699    1.3235 H   0  0  0  1  0  0  0  0  0  0  0  0
   -2.0101    2.1731    1.8483 H   0  0  0  1  0  0  0  0  0  0  0  0
   -0.0267    4.8972    0.5775 H   0  0  0  1  0  0  0  0  0  0  0  0
   -4.7151    5.9356    1.2460 H   0  0  0  1  0  0  0  0  0  0  0  0
   -3.9513    3.6365    1.3768 H   0  0  0  1  0  0  0  0  0  0  0  0
   -3.9958    8.0721    0.1950 H   0  0  0  1  0  0  0  0  0  0  0  0
   -0.2309    7.7648    1.2052 H   0  0  0  1  0  0  0  0  0  0  0  0
  1  4  1  0  0  0  0
  2  4  1  0  0  0  0
  2  5  2  0  0  0  0
  2  6  1  0  0  0  0
  3  4  1  0  0  0  0
  3  7  1  0  0  0  0
  3  8  1  0  0  0  0
  4 19  1  0  0  0  0
  6  9  1  0  0  0  0
  6 12  1  0  0  0  0
  8 10  1  0  0  0  0
  8 11  2  0  0  0  0
  9 13  1  0  0  0  0
  9 14  1  0  0  0  0
  9 15  1  0  0  0  0
 10 16  1  0  0  0  0
 10 17  1  0  0  0  0
 10 18  1  0  0  0  0
 19 20  1  0  0  0  0
 19 28  1  0  0  0  0
 19 29  1  0  0  0  0
 20 21  4  0  0  0  0
 20 25  4  0  0  0  0
 21 22  4  0  0  0  0
 21 30  1  0  0  0  0
 22 23  4  0  0  0  0
 22 27  1  0  0  0  0
 23 24  4  0  0  0  0
 23 26  1  0  0  0  0
 24 25  4  0  0  0  0
 24 31  1  0  0  0  0
 25 32  1  0  0  0  0
 26 33  1  0  0  0  0
 27 34  1  0  0  0  0
M  END
> <BCLConfClusterSize>
1

> <ConfClashScore>
0 

> <ConfOneFourInteractionScore>
-0.94194 

> <ConfScore>
0.190518 

> <ConfScorePBest>
0.00262186 

> <ConfTolerance>
0.890255 

> <RosettaParamsInstructions>
M  ROOT 3
M  POLY_N_BB 3
M  POLY_CA_BB 4
M  POLY_C_BB 2
M  POLY_O_BB 5
M  POLY_IGNORE 9 10 11 12 13 14 15 16 17 18 
M  POLY_UPPER 6
M  POLY_LOWER 8
M  POLY_CHG 0
M  POLY_PROPERTIES ALPHA_AA L_AA PROTEIN AROMATIC POLYMER 
M  END

$$$$



 34 34  0  0  0  0  0  0  0  0999 V2000
    0.5023    3.2096    1.9287 H   0  0  0  1  0  0  0  0  0  0  0  0
    0.5224    1.1227    1.6918 C   0  0  0  1  0  0  0  0  0  0  0  0
    0.6182    2.8253   -0.0846 N   0  0  0  1  0  0  0  0  0  0  0  0
    0.0842    2.5099    1.2355 C   0  0  0  1  0  0  0  0  0  0  0  0
   -0.2720    0.3410    2.2078 O   0  0  0  1  0  0  0  0  0  0  0  0
    1.8077    0.8264    1.4931 N   0  0  0  1  0  0  0  0  0  0  0  0
    1.1350    3.6527   -0.1784 H   0  0  0  1  0  0  0  0  0  0  0  0
    0.4544    2.0639   -1.1863 C   0  0  0  1  0  0  0  0  0  0  0  0
    2.4262   -0.4527    1.8081 C   0  0  0  1  0  0  0  0  0  0  0  0
    1.1892    2.4696   -2.4490 C   0  0  0  1  0  0  0  0  0  0  0  0
   -0.2693    1.0691   -1.1694 O   0  0  0  1  0  0  0  0  0  0  0  0
    2.3785    1.5225    1.1057 H   0  0  0  1  0  0  0  0  0  0  0  0
    2.4707   -0.5760    2.8701 H   0  0  0  1  0  0  0  0  0  0  0  0
    3.4168   -0.4786    1.4045 H   0  0  0  1  0  0  0  0  0  0  0  0
    1.8459   -1.2439    1.3815 H   0  0  0  1  0  0  0  0  0  0  0  0
    0.4917    2.5573   -3.2556 H   0  0  0  1  0  0  0  0  0  0  0  0
    1.9210    1.7271   -2.6898 H   0  0  0  1  0  0  0  0  0  0  0  0
    1.6735    3.4109   -2.2927 H   0  0  0  1  0  0  0  0  0  0  0  0
   -1.4253    2.6735    1.3063 C   0  0  0  1  0  0  0  0  0  0  0  0
   -1.9347    4.0702    1.0702 C   0  0  0  1  0  0  0  0  0  0  0  0
   -1.0427    5.0993    0.8113 C   0  0  0  1  0  0  0  0  0  0  0  0
   -1.5109    6.3824    0.5998 C   0  0  0  1  0  0  0  0  0  0  0  0
   -2.8724    6.6393    0.6414 C   0  0  0  1  0  0  0  0  0  0  0  0
   -3.7615    5.6131    0.8995 C   0  0  0  1  0  0  0  0  0  0  0  0
   -3.2922    4.3262    1.1116 C   0  0  0  1  0  0  0  0  0  0  0  0
   -3.3791    7.8792    0.4354 O   0  0  0  1  0  0  0  0  0  0  0  0
   -0.6781    7.4217    0.3485 O   0  0  0  1  0  0  0  0  0  0  0  0
   -1.7453    2.3656    2.2798 H   0  0  0  1  0  0  0  0  0  0  0  0
   -1.8616    2.0337    0.5679 H   0  0  0  1  0  0  0  0  0  0  0  0
   -0.0215    4.9059    0.7761 H   0  0  0  1  0  0  0  0  0  0  0  0
   -4.7827    5.8066    0.9346 H   0  0  0  1  0  0  0  0  0  0  0  0
   -3.9616    3.5533    1.3019 H   0  0  0  1  0  0  0  0  0  0  0  0
   -2.9885    8.4932    1.0615 H   0  0  0  1  0  0  0  0  0  0  0  0
   -0.8280    8.1159    0.9943 H   0  0  0  1  0  0  0  0  0  0  0  0
  1  4  1  0  0  0  0
  2  4  1  0  0  0  0
  2  5  2  0  0  0  0
  2  6  1  0  0  0  0
  3  4  1  0  0  0  0
  3  7  1  0  0  0  0
  3  8  1  0  0  0  0
  4 19  1  0  0  0  0
  6  9  1  0  0  0  0
  6 12  1  0  0  0  0
  8 10  1  0  0  0  0
  8 11  2  0  0  0  0
  9 13  1  0  0  0  0
  9 14  1  0  0  0  0
  9 15  1  0  0  0  0
 10 16  1  0  0  0  0
 10 17  1  0  0  0  0
 10 18  1  0  0  0  0
 19 20  1  0  0  0  0
 19 28  1  0  0  0  0
 19 29  1  0  0  0  0
 20 21  4  0  0  0  0
 20 25  4  0  0  0  0
 21 22  4  0  0  0  0
 21 30  1  0  0  0  0
 22 23  4  0  0  0  0
 22 27  1  0  0  0  0
 23 24  4  0  0  0  0
 23 26  1  0  0  0  0
 24 25  4  0  0  0  0
 24 31  1  0  0  0  0
 25 32  1  0  0  0  0
 26 33  1  0  0  0  0
 27 34  1  0  0  0  0
M  END
> <BCLConfClusterSize>
1

> <ConfClashScore>
0 

> <ConfOneFourInteractionScore>
-0.965222 

> <ConfScore>
0.198526 

> <ConfScorePBest>
0.00259338 

> <ConfTolerance>
0.911969 

> <RosettaParamsInstructions>
M  ROOT 3
M  POLY_N_BB 3
M  POLY_CA_BB 4
M  POLY_C_BB 2
M  POLY_O_BB 5
M  POLY_IGNORE 9 10 11 12 13 14 15 16 17 18 
M  POLY_UPPER 6
M  POLY_LOWER 8
M  POLY_CHG 0
M  POLY_PROPERTIES ALPHA_AA L_AA PROTEIN AROMATIC POLYMER 
M  END

$$$$



 34 34  0  0  0  0  0  0  0  0999 V2000
   -0.9665    2.6544   -1.0238 H   0  0  0  1  0  0  0  0  0  0  0  0
   -0.6095    0.7270   -0.2344 C   0  0  0  1  0  0  0  0  0  0  0  0
   -2.8106    1.7691   -0.7449 N   0  0  0  1  0  0  0  0  0  0  0  0
   -1.4390    2.0006   -0.3209 C   0  0  0  1  0  0  0  0  0  0  0  0
   -0.9743   -0.3018   -0.7974 O   0  0  0  1  0  0  0  0  0  0  0  0
    0.5229    0.7628    0.4697 N   0  0  0  1  0  0  0  0  0  0  0  0
   -3.4181    1.2924   -0.1415 H   0  0  0  1  0  0  0  0  0  0  0  0
   -3.2736    2.1859   -1.9340 C   0  0  0  1  0  0  0  0  0  0  0  0
    1.4307   -0.3610    0.6451 C   0  0  0  1  0  0  0  0  0  0  0  0
   -4.7397    1.9590   -2.2475 C   0  0  0  1  0  0  0  0  0  0  0  0
   -2.5322    2.7360   -2.7473 O   0  0  0  1  0  0  0  0  0  0  0  0
    0.7614    1.6096    0.9014 H   0  0  0  1  0  0  0  0  0  0  0  0
    2.2425   -0.2758   -0.0467 H   0  0  0  1  0  0  0  0  0  0  0  0
    0.9047   -1.2755    0.4665 H   0  0  0  1  0  0  0  0  0  0  0  0
    1.8126   -0.3581    1.6447 H   0  0  0  1  0  0  0  0  0  0  0  0
   -5.3386    2.3284   -1.4414 H   0  0  0  1  0  0  0  0  0  0  0  0
   -4.9192    0.9118   -2.3741 H   0  0  0  1  0  0  0  0  0  0  0  0
   -4.9958    2.4768   -3.1481 H   0  0  0  1  0  0  0  0  0  0  0  0
   -1.4366    2.6964    1.0412 C   0  0  0  1  0  0  0  0  0  0  0  0
   -1.9361    4.1151    0.9795 C   0  0  0  1  0  0  0  0  0  0  0  0
   -1.0509    5.1517    0.7276 C   0  0  0  1  0  0  0  0  0  0  0  0
   -1.5093    6.4546    0.6764 C   0  0  0  1  0  0  0  0  0  0  0  0
   -2.8549    6.7242    0.8716 C   0  0  0  1  0  0  0  0  0  0  0  0
   -3.7373    5.6906    1.1227 C   0  0  0  1  0  0  0  0  0  0  0  0
   -3.2778    4.3838    1.1741 C   0  0  0  1  0  0  0  0  0  0  0  0
   -3.3169    7.9972    0.8185 O   0  0  0  1  0  0  0  0  0  0  0  0
   -0.5516    7.3810    0.4288 O   0  0  0  1  0  0  0  0  0  0  0  0
   -0.4352    2.7039    1.4180 H   0  0  0  1  0  0  0  0  0  0  0  0
   -2.0648    2.1429    1.7075 H   0  0  0  1  0  0  0  0  0  0  0  0
   -0.0420    4.9491    0.5772 H   0  0  0  1  0  0  0  0  0  0  0  0
   -4.7462    5.8933    1.2731 H   0  0  0  1  0  0  0  0  0  0  0  0
   -3.9425    3.6057    1.3591 H   0  0  0  1  0  0  0  0  0  0  0  0
   -3.7838    8.1344   -0.0090 H   0  0  0  1  0  0  0  0  0  0  0  0
   -0.2932    7.8026    1.2516 H   0  0  0  1  0  0  0  0  0  0  0  0
  1  4  1  0  0  0  0
  2  4  1  0  0  0  0
  2  5  2  0  0  0  0
  2  6  1  0  0  0  0
  3  4  1  0  0  0  0
  3  7  1  0  0  0  0
  3  8  1  0  0  0  0
  4 19  1  0  0  0  0
  6  9  1  0  0  0  0
  6 12  1  0  0  0  0
  8 10  1  0  0  0  0
  8 11  2  0  0  0  0
  9 13  1  0  0  0  0
  9 14  1  0  0  0  0
  9 15  1  0  0  0  0
 10 16  1  0  0  0  0
 10 17  1  0  0  0  0
 10 18  1  0  0  0  0
 19 20  1  0  0  0  0
 19 28  1  0  0  0  0
 19 29  1  0  0  0  0
 20 21  4  0  0  0  0
 20 25  4  0  0  0  0
 21 22  4  0  0  0  0
 21 30  1  0  0  0  0
 22 23  4  0  0  0  0
 22 27  1  0  0  0  0
 23 24  4  0  0  0  0
 23 26  1  0  0  0  0
 24 25  4  0  0  0  0
 24 31  1  0  0  0  0
 25 32  1  0  0  0  0
 26 33  1  0  0  0  0
 27 34  1  0  0  0  0
M  END
> <BCLConfClusterSize>
1

> <ConfClashScore>
0 

> <ConfOneFourInteractionScore>
-0.95498 

> <ConfScore>
0.201956 

> <ConfScorePBest>
0.0025649 

> <ConfTolerance>
1.01212 

> <RosettaParamsInstructions>
M  ROOT 3
M  POLY_N_BB 3
M  POLY_CA_BB 4
M  POLY_C_BB 2
M  POLY_O_BB 5
M  POLY_IGNORE 9 10 11 12 13 14 15 16 17 18 
M  POLY_UPPER 6
M  POLY_LOWER 8
M  POLY_CHG 0
M  POLY_PROPERTIES ALPHA_AA L_AA PROTEIN AROMATIC POLYMER 
M  END

$$$$



 34 34  0  0  0  0  0  0  0  0999 V2000
   -2.3903    2.0236   -0.7535 H   0  0  0  1  0  0  0  0  0  0  0  0
   -0.4604    2.7325   -1.2416 C   0  0  0  1  0  0  0  0  0  0  0  0
   -1.0038    0.5897   -0.2104 N   0  0  0  1  0  0  0  0  0  0  0  0
   -1.4112    1.9821   -0.3239 C   0  0  0  1  0  0  0  0  0  0  0  0
   -0.8726    3.5787   -2.0339 O   0  0  0  1  0  0  0  0  0  0  0  0
    0.8314    2.4116   -1.1267 N   0  0  0  1  0  0  0  0  0  0  0  0
   -0.0464    0.3909   -0.2763 H   0  0  0  1  0  0  0  0  0  0  0  0
   -1.8436   -0.4468   -0.0215 C   0  0  0  1  0  0  0  0  0  0  0  0
    1.8329    2.8653   -2.0801 C   0  0  0  1  0  0  0  0  0  0  0  0
   -1.1668   -1.8015   -0.0985 C   0  0  0  1  0  0  0  0  0  0  0  0
   -3.0479   -0.3402    0.1947 O   0  0  0  1  0  0  0  0  0  0  0  0
    1.1144    1.8512   -0.3742 H   0  0  0  1  0  0  0  0  0  0  0  0
    1.7172    3.9159   -2.2469 H   0  0  0  1  0  0  0  0  0  0  0  0
    1.7078    2.3417   -3.0047 H   0  0  0  1  0  0  0  0  0  0  0  0
    2.8102    2.6720   -1.6895 H   0  0  0  1  0  0  0  0  0  0  0  0
   -0.7379   -1.9317   -1.0701 H   0  0  0  1  0  0  0  0  0  0  0  0
   -1.8887   -2.5712    0.0786 H   0  0  0  1  0  0  0  0  0  0  0  0
   -0.3962   -1.8575    0.6417 H   0  0  0  1  0  0  0  0  0  0  0  0
   -1.4679    2.6455    1.0459 C   0  0  0  1  0  0  0  0  0  0  0  0
   -1.9434    4.0727    0.9907 C   0  0  0  1  0  0  0  0  0  0  0  0
   -1.0362    5.0983    0.7747 C   0  0  0  1  0  0  0  0  0  0  0  0
   -1.4728    6.4089    0.7295 C   0  0  0  1  0  0  0  0  0  0  0  0
   -2.8185    6.6973    0.8947 C   0  0  0  1  0  0  0  0  0  0  0  0
   -3.7230    5.6747    1.1101 C   0  0  0  1  0  0  0  0  0  0  0  0
   -3.2853    4.3602    1.1555 C   0  0  0  1  0  0  0  0  0  0  0  0
   -3.2227    7.9898    0.8410 O   0  0  0  1  0  0  0  0  0  0  0  0
   -0.5291    7.3587    0.5200 O   0  0  0  1  0  0  0  0  0  0  0  0
   -0.4869    2.6297    1.4728 H   0  0  0  1  0  0  0  0  0  0  0  0
   -2.1368    2.0875    1.6672 H   0  0  0  1  0  0  0  0  0  0  0  0
   -0.0271    4.8816    0.6467 H   0  0  0  1  0  0  0  0  0  0  0  0
   -4.7320    5.8914    1.2381 H   0  0  0  1  0  0  0  0  0  0  0  0
   -3.9665    3.5904    1.3136 H   0  0  0  1  0  0  0  0  0  0  0  0
   -3.5415    8.1894   -0.0423 H   0  0  0  1  0  0  0  0  0  0  0  0
   -0.7131    8.1209    1.0739 H   0  0  0  1  0  0  0  0  0  0  0  0
  1  4  1  0  0  0  0
  2  4  1  0  0  0  0
  2  5  2  0  0  0  0
  2  6  1  0  0  0  0
  3  4  1  0  0  0  0
  3  7  1  0  0  0  0
  3  8  1  0  0  0  0
  4 19  1  0  0  0  0
  6  9  1  0  0  0  0
  6 12  1  0  0  0  0
  8 10  1  0  0  0  0
  8 11  2  0  0  0  0
  9 13  1  0  0  0  0
  9 14  1  0  0  0  0
  9 15  1  0  0  0  0
 10 16  1  0  0  0  0
 10 17  1  0  0  0  0
 10 18  1  0  0  0  0
 19 20  1  0  0  0  0
 19 28  1  0  0  0  0
 19 29  1  0  0  0  0
 20 21  4  0  0  0  0
 20 25  4  0  0  0  0
 21 22  4  0  0  0  0
 21 30  1  0  0  0  0
 22 23  4  0  0  0  0
 22 27  1  0  0  0  0
 23 24  4  0  0  0  0
 23 26  1  0  0  0  0
 24 25  4  0  0  0  0
 24 31  1  0  0  0  0
 25 32  1  0  0  0  0
 26 33  1  0  0  0  0
 27 34  1  0  0  0  0
M  END
> <BCLConfClusterSize>
1

> <ConfClashScore>
0 

> <ConfOneFourInteractionScore>
-0.965014 

> <ConfScore>
0.207448 

> <ConfScorePBest>
0.00253641 

> <ConfTolerance>
0.806941 

> <RosettaParamsInstructions>
M  ROOT 3
M  POLY_N_BB 3
M  POLY_CA_BB 4
M  POLY_C_BB 2
M  POLY_O_BB 5
M  POLY_IGNORE 9 10 11 12 13 14 15 16 17 18 
M  POLY_UPPER 6
M  POLY_LOWER 8
M  POLY_CHG 0
M  POLY_PROPERTIES ALPHA_AA L_AA PROTEIN AROMATIC POLYMER 
M  END

$$$$



 34 34  0  0  0  0  0  0  0  0999 V2000
   -0.9474    1.0461   -0.1640 H   0  0  0  1  0  0  0  0  0  0  0  0
   -2.5532    2.0077   -1.1321 C   0  0  0  1  0  0  0  0  0  0  0  0
   -0.1867    2.7875   -0.9841 N   0  0  0  1  0  0  0  0  0  0  0  0
   -1.2699    2.0544   -0.3193 C   0  0  0  1  0  0  0  0  0  0  0  0
   -2.5363    2.1036   -2.3482 O   0  0  0  1  0  0  0  0  0  0  0  0
   -3.6798    1.8569   -0.4298 N   0  0  0  1  0  0  0  0  0  0  0  0
   -0.4132    3.4298   -1.6886 H   0  0  0  1  0  0  0  0  0  0  0  0
    1.1104    2.6079   -0.6591 C   0  0  0  1  0  0  0  0  0  0  0  0
   -4.9938    1.8741   -1.0551 C   0  0  0  1  0  0  0  0  0  0  0  0
    2.1420    3.4721   -1.3484 C   0  0  0  1  0  0  0  0  0  0  0  0
    1.4465    1.7665    0.1731 O   0  0  0  1  0  0  0  0  0  0  0  0
   -3.6192    1.7303    0.5401 H   0  0  0  1  0  0  0  0  0  0  0  0
   -5.0917    1.0289   -1.7039 H   0  0  0  1  0  0  0  0  0  0  0  0
   -5.1067    2.7741   -1.6228 H   0  0  0  1  0  0  0  0  0  0  0  0
   -5.7492    1.8320   -0.2985 H   0  0  0  1  0  0  0  0  0  0  0  0
    2.0901    3.3157   -2.4056 H   0  0  0  1  0  0  0  0  0  0  0  0
    3.1182    3.2106   -0.9969 H   0  0  0  1  0  0  0  0  0  0  0  0
    1.9478    4.5014   -1.1303 H   0  0  0  1  0  0  0  0  0  0  0  0
   -1.4554    2.6897    1.0525 C   0  0  0  1  0  0  0  0  0  0  0  0
   -1.9359    4.1146    0.9823 C   0  0  0  1  0  0  0  0  0  0  0  0
   -1.0374    5.1376    0.7220 C   0  0  0  1  0  0  0  0  0  0  0  0
   -1.4784    6.4461    0.6630 C   0  0  0  1  0  0  0  0  0  0  0  0
   -2.8199    6.7350    0.8589 C   0  0  0  1  0  0  0  0  0  0  0  0
   -3.7156    5.7150    1.1185 C   0  0  0  1  0  0  0  0  0  0  0  0
   -3.2735    4.4025    1.1776 C   0  0  0  1  0  0  0  0  0  0  0  0
   -3.3432    7.9844    0.8146 O   0  0  0  1  0  0  0  0  0  0  0  0
   -0.5799    7.4292    0.4122 O   0  0  0  1  0  0  0  0  0  0  0  0
   -0.5168    2.6717    1.5659 H   0  0  0  1  0  0  0  0  0  0  0  0
   -2.1729    2.1149    1.5998 H   0  0  0  1  0  0  0  0  0  0  0  0
   -0.0315    4.9204    0.5710 H   0  0  0  1  0  0  0  0  0  0  0  0
   -4.7214    5.9321    1.2694 H   0  0  0  1  0  0  0  0  0  0  0  0
   -3.9482    3.6346    1.3690 H   0  0  0  1  0  0  0  0  0  0  0  0
   -3.9030    8.0701    0.0394 H   0  0  0  1  0  0  0  0  0  0  0  0
   -0.2359    7.7683    1.2419 H   0  0  0  1  0  0  0  0  0  0  0  0
  1  4  1  0  0  0  0
  2  4  1  0  0  0  0
  2  5  2  0  0  0  0
  2  6  1  0  0  0  0
  3  4  1  0  0  0  0
  3  7  1  0  0  0  0
  3  8  1  0  0  0  0
  4 19  1  0  0  0  0
  6  9  1  0  0  0  0
  6 12  1  0  0  0  0
  8 10  1  0  0  0  0
  8 11  2  0  0  0  0
  9 13  1  0  0  0  0
  9 14  1  0  0  0  0
  9 15  1  0  0  0  0
 10 16  1  0  0  0  0
 10 17  1  0  0  0  0
 10 18  1  0  0  0  0
 19 20  1  0  0  0  0
 19 28  1  0  0  0  0
 19 29  1  0  0  0  0
 20 21  4  0  0  0  0
 20 25  4  0  0  0  0
 21 22  4  0  0  0  0
 21 30  1  0  0  0  0
 22 23  4  0  0  0  0
 22 27  1  0  0  0  0
 23 24  4  0  0  0  0
 23 26  1  0  0  0  0
 24 25  4  0  0  0  0
 24 31  1  0  0  0  0
 25 32  1  0  0  0  0
 26 33  1  0  0  0  0
 27 34  1  0  0  0  0
M  END
> <BCLConfClusterSize>
1

> <ConfClashScore>
0 

> <ConfOneFourInteractionScore>
-0.927466 

> <ConfScore>
0.224954 

> <ConfScorePBest>
0.00250793 

> <ConfTolerance>
1.0821 

> <RosettaParamsInstructions>
M  ROOT 3
M  POLY_N_BB 3
M  POLY_CA_BB 4
M  POLY_C_BB 2
M  POLY_O_BB 5
M  POLY_IGNORE 9 10 11 12 13 14 15 16 17 18 
M  POLY_UPPER 6
M  POLY_LOWER 8
M  POLY_CHG 0
M  POLY_PROPERTIES ALPHA_AA L_AA PROTEIN AROMATIC POLYMER 
M  END

$$$$



 34 34  0  0  0  0  0  0  0  0999 V2000
   -2.3320    2.1592   -0.7431 H   0  0  0  1  0  0  0  0  0  0  0  0
   -1.5513    0.3814    0.0851 C   0  0  0  1  0  0  0  0  0  0  0  0
   -3.6169    1.4981    0.7357 N   0  0  0  1  0  0  0  0  0  0  0  0
   -2.2703    1.7089    0.2256 C   0  0  0  1  0  0  0  0  0  0  0  0
   -0.3234    0.3076    0.1063 O   0  0  0  1  0  0  0  0  0  0  0  0
   -2.3772   -0.6669   -0.0599 N   0  0  0  1  0  0  0  0  0  0  0  0
   -4.3782    1.8156    0.2066 H   0  0  0  1  0  0  0  0  0  0  0  0
   -3.8522    0.8841    1.9053 C   0  0  0  1  0  0  0  0  0  0  0  0
   -1.8361   -2.0127   -0.1779 C   0  0  0  1  0  0  0  0  0  0  0  0
   -5.3250    0.7677    2.2469 C   0  0  0  1  0  0  0  0  0  0  0  0
   -2.9815    0.4460    2.6525 O   0  0  0  1  0  0  0  0  0  0  0  0
   -3.3466   -0.5256   -0.0864 H   0  0  0  1  0  0  0  0  0  0  0  0
   -1.3840   -2.1328   -1.1402 H   0  0  0  1  0  0  0  0  0  0  0  0
   -2.6258   -2.7256   -0.0637 H   0  0  0  1  0  0  0  0  0  0  0  0
   -1.1008   -2.1692    0.5834 H   0  0  0  1  0  0  0  0  0  0  0  0
   -5.5970    1.5489    2.9257 H   0  0  0  1  0  0  0  0  0  0  0  0
   -5.5109   -0.1820    2.7035 H   0  0  0  1  0  0  0  0  0  0  0  0
   -5.9062    0.8540    1.3527 H   0  0  0  1  0  0  0  0  0  0  0  0
   -1.4821    2.6539    1.1370 C   0  0  0  1  0  0  0  0  0  0  0  0
   -1.9348    4.0859    1.0346 C   0  0  0  1  0  0  0  0  0  0  0  0
   -0.9996    5.1024    0.9175 C   0  0  0  1  0  0  0  0  0  0  0  0
   -1.4158    6.4173    0.8289 C   0  0  0  1  0  0  0  0  0  0  0  0
   -2.7685    6.7194    0.8518 C   0  0  0  1  0  0  0  0  0  0  0  0
   -3.7008    5.7058    0.9686 C   0  0  0  1  0  0  0  0  0  0  0  0
   -3.2836    4.3869    1.0574 C   0  0  0  1  0  0  0  0  0  0  0  0
   -3.1024    8.0293    0.7552 O   0  0  0  1  0  0  0  0  0  0  0  0
   -0.5759    7.4750    0.7172 O   0  0  0  1  0  0  0  0  0  0  0  0
   -0.4479    2.6036    0.8671 H   0  0  0  1  0  0  0  0  0  0  0  0
   -1.6031    2.3301    2.1496 H   0  0  0  1  0  0  0  0  0  0  0  0
    0.0152    4.8755    0.8963 H   0  0  0  1  0  0  0  0  0  0  0  0
   -4.7156    5.9327    0.9898 H   0  0  0  1  0  0  0  0  0  0  0  0
   -3.9853    3.6239    1.1413 H   0  0  0  1  0  0  0  0  0  0  0  0
   -3.9482    8.1769    1.1847 H   0  0  0  1  0  0  0  0  0  0  0  0
   -0.5818    7.7948   -0.1879 H   0  0  0  1  0  0  0  0  0  0  0  0
  1  4  1  0  0  0  0
  2  4  1  0  0  0  0
  2  5  2  0  0  0  0
  2  6  1  0  0  0  0
  3  4  1  0  0  0  0
  3  7  1  0  0  0  0
  3  8  1  0  0  0  0
  4 19  1  0  0  0  0
  6  9  1  0  0  0  0
  6 12  1  0  0  0  0
  8 10  1  0  0  0  0
  8 11  2  0  0  0  0
  9 13  1  0  0  0  0
  9 14  1  0  0  0  0
  9 15  1  0  0  0  0
 10 16  1  0  0  0  0
 10 17  1  0  0  0  0
 10 18  1  0  0  0  0
 19 20  1  0  0  0  0
 19 28  1  0  0  0  0
 19 29  1  0  0  0  0
 20 21  4  0  0  0  0
 20 25  4  0  0  0  0
 21 22  4  0  0  0  0
 21 30  1  0  0  0  0
 22 23  4  0  0  0  0
 22 27  1  0  0  0  0
 23 24  4  0  0  0  0
 23 26  1  0  0  0  0
 24 25  4  0  0  0  0
 24 31  1  0  0  0  0
 25 32  1  0  0  0  0
 26 33  1  0  0  0  0
 27 34  1  0  0  0  0
M  END
> <BCLConfClusterSize>
1

> <ConfClashScore>
0 

> <ConfOneFourInteractionScore>
-0.953489 

> <ConfScore>
0.225302 

> <ConfScorePBest>
0.00247945 

> <ConfTolerance>
1.01681 

> <RosettaParamsInstructions>
M  ROOT 3
M  POLY_N_BB 3
M  POLY_CA_BB 4
M  POLY_C_BB 2
M  POLY_O_BB 5
M  POLY_IGNORE 9 10 11 12 13 14 15 16 17 18 
M  POLY_UPPER 6
M  POLY_LOWER 8
M  POLY_CHG 0
M  POLY_PROPERTIES ALPHA_AA L_AA PROTEIN AROMATIC POLYMER 
M  END

$$$$



 34 34  0  0  0  0  0  0  0  0999 V2000
   -1.5663    1.6268    2.8101 H   0  0  0  1  0  0  0  0  0  0  0  0
    0.4296    1.6931    2.2672 C   0  0  0  1  0  0  0  0  0  0  0  0
   -0.7990    3.4909    3.2708 N   0  0  0  1  0  0  0  0  0  0  0  0
   -0.8855    2.3367    2.3887 C   0  0  0  1  0  0  0  0  0  0  0  0
    0.5408    0.5195    1.8585 O   0  0  0  1  0  0  0  0  0  0  0  0
    1.5066    2.4637    2.6297 N   0  0  0  1  0  0  0  0  0  0  0  0
   -0.5446    4.3718    2.9246 H   0  0  0  1  0  0  0  0  0  0  0  0
   -1.0869    3.3090    4.6149 C   0  0  0  1  0  0  0  0  0  0  0  0
    2.8534    1.9171    2.5579 C   0  0  0  1  0  0  0  0  0  0  0  0
   -0.9220    4.4656    5.5603 C   0  0  0  1  0  0  0  0  0  0  0  0
   -1.4654    2.2129    4.9861 O   0  0  0  1  0  0  0  0  0  0  0  0
    1.3681    3.3838    2.9375 H   0  0  0  1  0  0  0  0  0  0  0  0
    3.5567    2.6568    2.8793 H   0  0  0  1  0  0  0  0  0  0  0  0
    3.0699    1.6342    1.5489 H   0  0  0  1  0  0  0  0  0  0  0  0
    2.9240    1.0586    3.1925 H   0  0  0  1  0  0  0  0  0  0  0  0
   -1.3479    5.3457    5.1256 H   0  0  0  1  0  0  0  0  0  0  0  0
    0.1191    4.6281    5.7465 H   0  0  0  1  0  0  0  0  0  0  0  0
   -1.4197    4.2465    6.4818 H   0  0  0  1  0  0  0  0  0  0  0  0
   -1.4164    2.7407    1.0098 C   0  0  0  1  0  0  0  0  0  0  0  0
   -1.9290    4.1554    0.9665 C   0  0  0  1  0  0  0  0  0  0  0  0
   -1.0526    5.2038    0.7332 C   0  0  0  1  0  0  0  0  0  0  0  0
   -1.5232    6.5029    0.6990 C   0  0  0  1  0  0  0  0  0  0  0  0
   -2.8720    6.7571    0.8926 C   0  0  0  1  0  0  0  0  0  0  0  0
   -3.7456    5.7116    1.1252 C   0  0  0  1  0  0  0  0  0  0  0  0
   -3.2739    4.4086    1.1596 C   0  0  0  1  0  0  0  0  0  0  0  0
   -3.3810    8.0127    0.8629 O   0  0  0  1  0  0  0  0  0  0  0  0
   -0.6460    7.5113    0.4744 O   0  0  0  1  0  0  0  0  0  0  0  0
   -2.2160    2.0805    0.7459 H   0  0  0  1  0  0  0  0  0  0  0  0
   -0.6235    2.6438    0.2978 H   0  0  0  1  0  0  0  0  0  0  0  0
   -0.0413    5.0129    0.5839 H   0  0  0  1  0  0  0  0  0  0  0  0
   -4.7569    5.9026    1.2745 H   0  0  0  1  0  0  0  0  0  0  0  0
   -3.9320    3.6217    1.3307 H   0  0  0  1  0  0  0  0  0  0  0  0
   -4.0556    8.0690    0.1822 H   0  0  0  1  0  0  0  0  0  0  0  0
    0.1462    7.3695    0.9977 H   0  0  0  1  0  0  0  0  0  0  0  0
  1  4  1  0  0  0  0
  2  4  1  0  0  0  0
  2  5  2  0  0  0  0
  2  6  1  0  0  0  0
  3  4  1  0  0  0  0
  3  7  1  0  0  0  0
  3  8  1  0  0  0  0
  4 19  1  0  0  0  0
  6  9  1  0  0  0  0
  6 12  1  0  0  0  0
  8 10  1  0  0  0  0
  8 11  2  0  0  0  0
  9 13  1  0  0  0  0
  9 14  1  0  0  0  0
  9 15  1  0  0  0  0
 10 16  1  0  0  0  0
 10 17  1  0  0  0  0
 10 18  1  0  0  0  0
 19 20  1  0  0  0  0
 19 28  1  0  0  0  0
 19 29  1  0  0  0  0
 20 21  4  0  0  0  0
 20 25  4  0  0  0  0
 21 22  4  0  0  0  0
 21 30  1  0  0  0  0
 22 23  4  0  0  0  0
 22 27  1  0  0  0  0
 23 24  4  0  0  0  0
 23 26  1  0  0  0  0
 24 25  4  0  0  0  0
 24 31  1  0  0  0  0
 25 32  1  0  0  0  0
 26 33  1  0  0  0  0
 27 34  1  0  0  0  0
M  END
> <BCLConfClusterSize>
1

> <ConfClashScore>
0 

> <ConfOneFourInteractionScore>
-0.928132 

> <ConfScore>
0.22544 

> <ConfScorePBest>
0.00245097 

> <ConfTolerance>
1.04103 

> <RosettaParamsInstructions>
M  ROOT 3
M  POLY_N_BB 3
M  POLY_CA_BB 4
M  POLY_C_BB 2
M  POLY_O_BB 5
M  POLY_IGNORE 9 10 11 12 13 14 15 16 17 18 
M  POLY_UPPER 6
M  POLY_LOWER 8
M  POLY_CHG 0
M  POLY_PROPERTIES ALPHA_AA L_AA PROTEIN AROMATIC POLYMER 
M  END

$$$$



 34 34  0  0  0  0  0  0  0  0999 V2000
   -0.3614    3.2680    2.8629 H   0  0  0  1  0  0  0  0  0  0  0  0
   -1.7677    1.8069    3.4750 C   0  0  0  1  0  0  0  0  0  0  0  0
    0.3445    1.4037    2.3123 N   0  0  0  1  0  0  0  0  0  0  0  0
   -0.7498    2.3491    2.4760 C   0  0  0  1  0  0  0  0  0  0  0  0
   -2.8572    2.3510    3.6337 O   0  0  0  1  0  0  0  0  0  0  0  0
   -1.3933    0.7172    4.1515 N   0  0  0  1  0  0  0  0  0  0  0  0
    0.3240    0.7832    1.5541 H   0  0  0  1  0  0  0  0  0  0  0  0
    1.3847    1.3519    3.1670 C   0  0  0  1  0  0  0  0  0  0  0  0
   -2.2789    0.0414    5.0891 C   0  0  0  1  0  0  0  0  0  0  0  0
    2.5110    0.4493    2.7021 C   0  0  0  1  0  0  0  0  0  0  0  0
    1.4475    1.9644    4.2296 O   0  0  0  1  0  0  0  0  0  0  0  0
   -0.4914    0.3604    4.0118 H   0  0  0  1  0  0  0  0  0  0  0  0
   -2.9389    0.7557    5.5353 H   0  0  0  1  0  0  0  0  0  0  0  0
   -1.6964   -0.4310    5.8523 H   0  0  0  1  0  0  0  0  0  0  0  0
   -2.8522   -0.6971    4.5687 H   0  0  0  1  0  0  0  0  0  0  0  0
    2.8671   -0.1313    3.5273 H   0  0  0  1  0  0  0  0  0  0  0  0
    3.3100    1.0467    2.3155 H   0  0  0  1  0  0  0  0  0  0  0  0
    2.1505   -0.2044    1.9356 H   0  0  0  1  0  0  0  0  0  0  0  0
   -1.4210    2.6468    1.1317 C   0  0  0  1  0  0  0  0  0  0  0  0
   -1.9405    4.0561    1.0313 C   0  0  0  1  0  0  0  0  0  0  0  0
   -1.0543    5.1148    0.9074 C   0  0  0  1  0  0  0  0  0  0  0  0
   -1.5318    6.4090    0.8207 C   0  0  0  1  0  0  0  0  0  0  0  0
   -2.8969    6.6478    0.8521 C   0  0  0  1  0  0  0  0  0  0  0  0
   -3.7803    5.5921    0.9755 C   0  0  0  1  0  0  0  0  0  0  0  0
   -3.3016    4.2941    1.0626 C   0  0  0  1  0  0  0  0  0  0  0  0
   -3.4126    7.8980    0.7651 O   0  0  0  1  0  0  0  0  0  0  0  0
   -0.6072    7.3933    0.7068 O   0  0  0  1  0  0  0  0  0  0  0  0
   -2.2411    1.9716    1.0036 H   0  0  0  1  0  0  0  0  0  0  0  0
   -0.7052    2.4913    0.3517 H   0  0  0  1  0  0  0  0  0  0  0  0
   -0.0302    4.9354    0.8798 H   0  0  0  1  0  0  0  0  0  0  0  0
   -4.8043    5.7716    1.0031 H   0  0  0  1  0  0  0  0  0  0  0  0
   -3.9666    3.4994    1.1514 H   0  0  0  1  0  0  0  0  0  0  0  0
   -2.7029    8.5281    0.6202 H   0  0  0  1  0  0  0  0  0  0  0  0
   -1.0289    8.1933    0.3845 H   0  0  0  1  0  0  0  0  0  0  0  0
  1  4  1  0  0  0  0
  2  4  1  0  0  0  0
  2  5  2  0  0  0  0
  2  6  1  0  0  0  0
  3  4  1  0  0  0  0
  3  7  1  0  0  0  0
  3  8  1  0  0  0  0
  4 19  1  0  0  0  0
  6  9  1  0  0  0  0
  6 12  1  0  0  0  0
  8 10  1  0  0  0  0
  8 11  2  0  0  0  0
  9 13  1  0  0  0  0
  9 14  1  0  0  0  0
  9 15  1  0  0  0  0
 10 16  1  0  0  0  0
 10 17  1  0  0  0  0
 10 18  1  0  0  0  0
 19 20  1  0  0  0  0
 19 28  1  0  0  0  0
 19 29  1  0  0  0  0
 20 21  4  0  0  0  0
 20 25  4  0  0  0  0
 21 22  4  0  0  0  0
 21 30  1  0  0  0  0
 22 23  4  0  0  0  0
 22 27  1  0  0  0  0
 23 24  4  0  0  0  0
 23 26  1  0  0  0  0
 24 25  4  0  0  0  0
 24 31  1  0  0  0  0
 25 32  1  0  0  0  0
 26 33  1  0  0  0  0
 27 34  1  0  0  0  0
M  END
> <BCLConfClusterSize>
1

> <ConfClashScore>
0 

> <ConfOneFourInteractionScore>
-0.948834 

> <ConfScore>
0.228839 

> <ConfScorePBest>
0.00242249 

> <ConfTolerance>
1.07493 

> <RosettaParamsInstructions>
M  ROOT 3
M  POLY_N_BB 3
M  POLY_CA_BB 4
M  POLY_C_BB 2
M  POLY_O_BB 5
M  POLY_IGNORE 9 10 11 12 13 14 15 16 17 18 
M  POLY_UPPER 6
M  POLY_LOWER 8
M  POLY_CHG 0
M  POLY_PROPERTIES ALPHA_AA L_AA PROTEIN AROMATIC POLYMER 
M  END

$$$$



 34 34  0  0  0  0  0  0  0  0999 V2000
   -1.4165    1.2995   -0.5536 H   0  0  0  1  0  0  0  0  0  0  0  0
   -1.2512    3.1751   -1.4906 C   0  0  0  1  0  0  0  0  0  0  0  0
    0.5196    1.9764   -0.3658 N   0  0  0  1  0  0  0  0  0  0  0  0
   -0.9145    2.2240   -0.3586 C   0  0  0  1  0  0  0  0  0  0  0  0
   -2.3531    3.1523   -2.0372 O   0  0  0  1  0  0  0  0  0  0  0  0
   -0.2767    4.0275   -1.8454 N   0  0  0  1  0  0  0  0  0  0  0  0
    1.0806    2.4265    0.2999 H   0  0  0  1  0  0  0  0  0  0  0  0
    1.0979    1.1567   -1.2482 C   0  0  0  1  0  0  0  0  0  0  0  0
   -0.4252    4.9610   -2.9519 C   0  0  0  1  0  0  0  0  0  0  0  0
    2.6108    1.0214   -1.1330 C   0  0  0  1  0  0  0  0  0  0  0  0
    0.4665    0.5431   -2.1045 O   0  0  0  1  0  0  0  0  0  0  0  0
    0.5640    4.0209   -1.3418 H   0  0  0  1  0  0  0  0  0  0  0  0
   -1.4577    5.0309   -3.2242 H   0  0  0  1  0  0  0  0  0  0  0  0
    0.1416    4.6133   -3.7902 H   0  0  0  1  0  0  0  0  0  0  0  0
   -0.0689    5.9253   -2.6550 H   0  0  0  1  0  0  0  0  0  0  0  0
    2.8685    0.7312   -0.1358 H   0  0  0  1  0  0  0  0  0  0  0  0
    3.0709    1.9600   -1.3612 H   0  0  0  1  0  0  0  0  0  0  0  0
    2.9555    0.2779   -1.8209 H   0  0  0  1  0  0  0  0  0  0  0  0
   -1.3806    2.7192    1.0042 C   0  0  0  1  0  0  0  0  0  0  0  0
   -1.9320    4.1293    0.9664 C   0  0  0  1  0  0  0  0  0  0  0  0
   -1.0804    5.2016    0.7505 C   0  0  0  1  0  0  0  0  0  0  0  0
   -1.5836    6.4885    0.7214 C   0  0  0  1  0  0  0  0  0  0  0  0
   -2.9404    6.7067    0.9028 C   0  0  0  1  0  0  0  0  0  0  0  0
   -3.7893    5.6375    1.1181 C   0  0  0  1  0  0  0  0  0  0  0  0
   -3.2849    4.3467    1.1473 C   0  0  0  1  0  0  0  0  0  0  0  0
   -3.4810    7.9492    0.8775 O   0  0  0  1  0  0  0  0  0  0  0  0
   -0.7904    7.5686    0.5189 O   0  0  0  1  0  0  0  0  0  0  0  0
   -0.5491    2.6966    1.6774 H   0  0  0  1  0  0  0  0  0  0  0  0
   -2.1469    2.0632    1.3610 H   0  0  0  1  0  0  0  0  0  0  0  0
   -0.0630    5.0376    0.6104 H   0  0  0  1  0  0  0  0  0  0  0  0
   -4.8067    5.8014    1.2582 H   0  0  0  1  0  0  0  0  0  0  0  0
   -3.9244    3.5419    1.3053 H   0  0  0  1  0  0  0  0  0  0  0  0
   -3.3852    8.3225   -0.0017 H   0  0  0  1  0  0  0  0  0  0  0  0
   -0.0374    7.5291    1.1131 H   0  0  0  1  0  0  0  0  0  0  0  0
  1  4  1  0  0  0  0
  2  4  1  0  0  0  0
  2  5  2  0  0  0  0
  2  6  1  0  0  0  0
  3  4  1  0  0  0  0
  3  7  1  0  0  0  0
  3  8  1  0  0  0  0
  4 19  1  0  0  0  0
  6  9  1  0  0  0  0
  6 12  1  0  0  0  0
  8 10  1  0  0  0  0
  8 11  2  0  0  0  0
  9 13  1  0  0  0  0
  9 14  1  0  0  0  0
  9 15  1  0  0  0  0
 10 16  1  0  0  0  0
 10 17  1  0  0  0  0
 10 18  1  0  0  0  0
 19 20  1  0  0  0  0
 19 28  1  0  0  0  0
 19 29  1  0  0  0  0
 20 21  4  0  0  0  0
 20 25  4  0  0  0  0
 21 22  4  0  0  0  0
 21 30  1  0  0  0  0
 22 23  4  0  0  0  0
 22 27  1  0  0  0  0
 23 24  4  0  0  0  0
 23 26  1  0  0  0  0
 24 25  4  0  0  0  0
 24 31  1  0  0  0  0
 25 32  1  0  0  0  0
 26 33  1  0  0  0  0
 27 34  1  0  0  0  0
M  END
> <BCLConfClusterSize>
1

> <ConfClashScore>
0 

> <ConfOneFourInteractionScore>
-0.942345 

> <ConfScore>
0.233778 

> <ConfScorePBest>
0.00239401 

> <ConfTolerance>
1.13524 

> <RosettaParamsInstructions>
M  ROOT 3
M  POLY_N_BB 3
M  POLY_CA_BB 4
M  POLY_C_BB 2
M  POLY_O_BB 5
M  POLY_IGNORE 9 10 11 12 13 14 15 16 17 18 
M  POLY_UPPER 6
M  POLY_LOWER 8
M  POLY_CHG 0
M  POLY_PROPERTIES ALPHA_AA L_AA PROTEIN AROMATIC POLYMER 
M  END

$$$$



 34 34  0  0  0  0  0  0  0  0999 V2000
   -1.2015    0.7969    0.4147 H   0  0  0  1  0  0  0  0  0  0  0  0
   -3.0120    1.6277   -0.2790 C   0  0  0  1  0  0  0  0  0  0  0  0
   -0.7735    2.2024   -1.0406 N   0  0  0  1  0  0  0  0  0  0  0  0
   -1.5493    1.7660    0.1235 C   0  0  0  1  0  0  0  0  0  0  0  0
   -3.9156    1.7455    0.5476 O   0  0  0  1  0  0  0  0  0  0  0  0
   -3.2379    1.3728   -1.5775 N   0  0  0  1  0  0  0  0  0  0  0  0
   -0.0036    1.6557   -1.3028 H   0  0  0  1  0  0  0  0  0  0  0  0
   -1.0367    3.2896   -1.7713 C   0  0  0  1  0  0  0  0  0  0  0  0
   -4.5538    1.1148   -2.1430 C   0  0  0  1  0  0  0  0  0  0  0  0
   -0.0764    3.5649   -2.9120 C   0  0  0  1  0  0  0  0  0  0  0  0
   -1.9906    4.0303   -1.5483 O   0  0  0  1  0  0  0  0  0  0  0  0
   -2.4676    1.3595   -2.1832 H   0  0  0  1  0  0  0  0  0  0  0  0
   -4.6915    0.0603   -2.2606 H   0  0  0  1  0  0  0  0  0  0  0  0
   -4.6317    1.5931   -3.0970 H   0  0  0  1  0  0  0  0  0  0  0  0
   -5.3056    1.5015   -1.4871 H   0  0  0  1  0  0  0  0  0  0  0  0
    0.8626    3.0932   -2.7101 H   0  0  0  1  0  0  0  0  0  0  0  0
    0.0687    4.6206   -3.0088 H   0  0  0  1  0  0  0  0  0  0  0  0
   -0.4827    3.1752   -3.8219 H   0  0  0  1  0  0  0  0  0  0  0  0
   -1.4000    2.6887    1.3261 C   0  0  0  1  0  0  0  0  0  0  0  0
   -1.9416    4.0810    1.0765 C   0  0  0  1  0  0  0  0  0  0  0  0
   -1.0321    5.0875    0.7913 C   0  0  0  1  0  0  0  0  0  0  0  0
   -1.4769    6.3758    0.5614 C   0  0  0  1  0  0  0  0  0  0  0  0
   -2.8327    6.6602    0.6106 C   0  0  0  1  0  0  0  0  0  0  0  0
   -3.7393    5.6566    0.8949 C   0  0  0  1  0  0  0  0  0  0  0  0
   -3.2934    4.3645    1.1256 C   0  0  0  1  0  0  0  0  0  0  0  0
   -3.3169    7.9061    0.3872 O   0  0  0  1  0  0  0  0  0  0  0  0
   -0.6263    7.3938    0.2841 O   0  0  0  1  0  0  0  0  0  0  0  0
   -0.3609    2.7660    1.5691 H   0  0  0  1  0  0  0  0  0  0  0  0
   -1.9290    2.2604    2.1517 H   0  0  0  1  0  0  0  0  0  0  0  0
   -0.0152    4.8734    0.7505 H   0  0  0  1  0  0  0  0  0  0  0  0
   -4.7562    5.8708    0.9358 H   0  0  0  1  0  0  0  0  0  0  0  0
   -3.9761    3.6085    1.3355 H   0  0  0  1  0  0  0  0  0  0  0  0
   -3.4085    8.3690    1.2233 H   0  0  0  1  0  0  0  0  0  0  0  0
   -0.6639    8.0439    0.9894 H   0  0  0  1  0  0  0  0  0  0  0  0
  1  4  1  0  0  0  0
  2  4  1  0  0  0  0
  2  5  2  0  0  0  0
  2  6  1  0  0  0  0
  3  4  1  0  0  0  0
  3  7  1  0  0  0  0
  3  8  1  0  0  0  0
  4 19  1  0  0  0  0
  6  9  1  0  0  0  0
  6 12  1  0  0  0  0
  8 10  1  0  0  0  0
  8 11  2  0  0  0  0
  9 13  1  0  0  0  0
  9 14  1  0  0  0  0
  9 15  1  0  0  0  0
 10 16  1  0  0  0  0
 10 17  1  0  0  0  0
 10 18  1  0  0  0  0
 19 20  1  0  0  0  0
 19 28  1  0  0  0  0
 19 29  1  0  0  0  0
 20 21  4  0  0  0  0
 20 25  4  0  0  0  0
 21 22  4  0  0  0  0
 21 30  1  0  0  0  0
 22 23  4  0  0  0  0
 22 27  1  0  0  0  0
 23 24  4  0  0  0  0
 23 26  1  0  0  0  0
 24 25  4  0  0  0  0
 24 31  1  0  0  0  0
 25 32  1  0  0  0  0
 26 33  1  0  0  0  0
 27 34  1  0  0  0  0
M  END
> <BCLConfClusterSize>
1

> <ConfClashScore>
0 

> <ConfOneFourInteractionScore>
-0.935452 

> <ConfScore>
0.25639 

> <ConfScorePBest>
0.00236553 

> <ConfTolerance>
1.25471 

> <RosettaParamsInstructions>
M  ROOT 3
M  POLY_N_BB 3
M  POLY_CA_BB 4
M  POLY_C_BB 2
M  POLY_O_BB 5
M  POLY_IGNORE 9 10 11 12 13 14 15 16 17 18 
M  POLY_UPPER 6
M  POLY_LOWER 8
M  POLY_CHG 0
M  POLY_PROPERTIES ALPHA_AA L_AA PROTEIN AROMATIC POLYMER 
M  END

$$$$



 34 34  0  0  0  0  0  0  0  0999 V2000
   -0.4632    1.2787    2.2632 H   0  0  0  1  0  0  0  0  0  0  0  0
    0.4540    3.1052    2.7473 C   0  0  0  1  0  0  0  0  0  0  0  0
   -1.8048    2.3422    3.4032 N   0  0  0  1  0  0  0  0  0  0  0  0
   -0.7738    2.2962    2.3771 C   0  0  0  1  0  0  0  0  0  0  0  0
    1.1385    3.6563    1.8869 O   0  0  0  1  0  0  0  0  0  0  0  0
    0.7321    3.1739    4.0523 N   0  0  0  1  0  0  0  0  0  0  0  0
   -2.1682    1.4993    3.7466 H   0  0  0  1  0  0  0  0  0  0  0  0
   -2.2731    3.4935    3.8934 C   0  0  0  1  0  0  0  0  0  0  0  0
    1.7923    4.0212    4.5777 C   0  0  0  1  0  0  0  0  0  0  0  0
   -3.2986    3.3400    5.0180 C   0  0  0  1  0  0  0  0  0  0  0  0
   -1.8808    4.6000    3.5564 O   0  0  0  1  0  0  0  0  0  0  0  0
    0.2039    2.6349    4.6775 H   0  0  0  1  0  0  0  0  0  0  0  0
    1.9961    4.8098    3.8839 H   0  0  0  1  0  0  0  0  0  0  0  0
    2.6767    3.4367    4.7229 H   0  0  0  1  0  0  0  0  0  0  0  0
    1.4835    4.4400    5.5127 H   0  0  0  1  0  0  0  0  0  0  0  0
   -3.5198    2.3029    5.1606 H   0  0  0  1  0  0  0  0  0  0  0  0
   -4.1949    3.8630    4.7569 H   0  0  0  1  0  0  0  0  0  0  0  0
   -2.8985    3.7468    5.9232 H   0  0  0  1  0  0  0  0  0  0  0  0
   -1.3471    2.7462    1.0433 C   0  0  0  1  0  0  0  0  0  0  0  0
   -1.9220    4.1373    1.0244 C   0  0  0  1  0  0  0  0  0  0  0  0
   -1.0942    5.2347    0.8457 C   0  0  0  1  0  0  0  0  0  0  0  0
   -1.6381    6.5014    0.7461 C   0  0  0  1  0  0  0  0  0  0  0  0
   -3.0116    6.6739    0.8195 C   0  0  0  1  0  0  0  0  0  0  0  0
   -3.8367    5.5796    0.9977 C   0  0  0  1  0  0  0  0  0  0  0  0
   -3.2914    4.3091    1.0976 C   0  0  0  1  0  0  0  0  0  0  0  0
   -3.6334    7.8745    0.7271 O   0  0  0  1  0  0  0  0  0  0  0  0
   -0.9088    7.6310    0.5760 O   0  0  0  1  0  0  0  0  0  0  0  0
   -2.1251    2.0638    0.7714 H   0  0  0  1  0  0  0  0  0  0  0  0
   -0.5636    2.7029    0.3158 H   0  0  0  1  0  0  0  0  0  0  0  0
   -0.0640    5.1050    0.7866 H   0  0  0  1  0  0  0  0  0  0  0  0
   -4.8669    5.7094    1.0568 H   0  0  0  1  0  0  0  0  0  0  0  0
   -3.9127    3.4852    1.2276 H   0  0  0  1  0  0  0  0  0  0  0  0
   -2.9785    8.5763    0.7380 H   0  0  0  1  0  0  0  0  0  0  0  0
    0.0263    7.4162    0.6057 H   0  0  0  1  0  0  0  0  0  0  0  0
  1  4  1  0  0  0  0
  2  4  1  0  0  0  0
  2  5  2  0  0  0  0
  2  6  1  0  0  0  0
  3  4  1  0  0  0  0
  3  7  1  0  0  0  0
  3  8  1  0  0  0  0
  4 19  1  0  0  0  0
  6  9  1  0  0  0  0
  6 12  1  0  0  0  0
  8 10  1  0  0  0  0
  8 11  2  0  0  0  0
  9 13  1  0  0  0  0
  9 14  1  0  0  0  0
  9 15  1  0  0  0  0
 10 16  1  0  0  0  0
 10 17  1  0  0  0  0
 10 18  1  0  0  0  0
 19 20  1  0  0  0  0
 19 28  1  0  0  0  0
 19 29  1  0  0  0  0
 20 21  4  0  0  0  0
 20 25  4  0  0  0  0
 21 22  4  0  0  0  0
 21 30  1  0  0  0  0
 22 23  4  0  0  0  0
 22 27  1  0  0  0  0
 23 24  4  0  0  0  0
 23 26  1  0  0  0  0
 24 25  4  0  0  0  0
 24 31  1  0  0  0  0
 25 32  1  0  0  0  0
 26 33  1  0  0  0  0
 27 34  1  0  0  0  0
M  END
> <BCLConfClusterSize>
1

> <ConfClashScore>
0 

> <ConfOneFourInteractionScore>
-0.947651 

> <ConfScore>
0.259846 

> <ConfScorePBest>
0.00233705 

> <ConfTolerance>
1.12063 

> <RosettaParamsInstructions>
M  ROOT 3
M  POLY_N_BB 3
M  POLY_CA_BB 4
M  POLY_C_BB 2
M  POLY_O_BB 5
M  POLY_IGNORE 9 10 11 12 13 14 15 16 17 18 
M  POLY_UPPER 6
M  POLY_LOWER 8
M  POLY_CHG 0
M  POLY_PROPERTIES ALPHA_AA L_AA PROTEIN AROMATIC POLYMER 
M  END

$$$$



 34 34  0  0  0  0  0  0  0  0999 V2000
   -2.3577    1.8854   -0.5797 H   0  0  0  1  0  0  0  0  0  0  0  0
   -0.4562    2.5370   -1.1759 C   0  0  0  1  0  0  0  0  0  0  0  0
   -0.9869    0.4871    0.0355 N   0  0  0  1  0  0  0  0  0  0  0  0
   -1.3787    1.8872   -0.1478 C   0  0  0  1  0  0  0  0  0  0  0  0
   -0.1521    3.7259   -1.0885 O   0  0  0  1  0  0  0  0  0  0  0  0
    0.0095    1.7768   -2.1710 N   0  0  0  1  0  0  0  0  0  0  0  0
   -1.6326   -0.2172   -0.1824 H   0  0  0  1  0  0  0  0  0  0  0  0
    0.2200    0.1373    0.4894 C   0  0  0  1  0  0  0  0  0  0  0  0
    0.9751    2.2717   -3.1409 C   0  0  0  1  0  0  0  0  0  0  0  0
    0.4288   -1.3528    0.7356 C   0  0  0  1  0  0  0  0  0  0  0  0
    1.1179    0.9513    0.7010 O   0  0  0  1  0  0  0  0  0  0  0  0
   -0.3102    0.8539   -2.2506 H   0  0  0  1  0  0  0  0  0  0  0  0
    1.5734    3.0362   -2.6910 H   0  0  0  1  0  0  0  0  0  0  0  0
    0.4570    2.6754   -3.9855 H   0  0  0  1  0  0  0  0  0  0  0  0
    1.6048    1.4673   -3.4592 H   0  0  0  1  0  0  0  0  0  0  0  0
   -0.1647   -1.9154    0.0456 H   0  0  0  1  0  0  0  0  0  0  0  0
    0.1360   -1.5932    1.7362 H   0  0  0  1  0  0  0  0  0  0  0  0
    1.4618   -1.5955    0.5976 H   0  0  0  1  0  0  0  0  0  0  0  0
   -1.4893    2.6502    1.1657 C   0  0  0  1  0  0  0  0  0  0  0  0
   -1.9355    4.0827    1.0442 C   0  0  0  1  0  0  0  0  0  0  0  0
   -0.9954    5.0940    0.9212 C   0  0  0  1  0  0  0  0  0  0  0  0
   -1.4057    6.4096    0.8150 C   0  0  0  1  0  0  0  0  0  0  0  0
   -2.7572    6.7173    0.8261 C   0  0  0  1  0  0  0  0  0  0  0  0
   -3.6944    5.7089    0.9487 C   0  0  0  1  0  0  0  0  0  0  0  0
   -3.2831    4.3894    1.0552 C   0  0  0  1  0  0  0  0  0  0  0  0
   -3.1345    8.0142    0.7153 O   0  0  0  1  0  0  0  0  0  0  0  0
   -0.5607    7.4625    0.6964 O   0  0  0  1  0  0  0  0  0  0  0  0
   -0.5272    2.6428    1.6338 H   0  0  0  1  0  0  0  0  0  0  0  0
   -2.1929    2.1370    1.7873 H   0  0  0  1  0  0  0  0  0  0  0  0
    0.0185    4.8628    0.9088 H   0  0  0  1  0  0  0  0  0  0  0  0
   -4.7083    5.9401    0.9611 H   0  0  0  1  0  0  0  0  0  0  0  0
   -3.9886    3.6304    1.1435 H   0  0  0  1  0  0  0  0  0  0  0  0
   -3.9003    8.1738    1.2718 H   0  0  0  1  0  0  0  0  0  0  0  0
   -0.6447    7.8436   -0.1807 H   0  0  0  1  0  0  0  0  0  0  0  0
  1  4  1  0  0  0  0
  2  4  1  0  0  0  0
  2  5  2  0  0  0  0
  2  6  1  0  0  0  0
  3  4  1  0  0  0  0
  3  7  1  0  0  0  0
  3  8  1  0  0  0  0
  4 19  1  0  0  0  0
  6  9  1  0  0  0  0
  6 12  1  0  0  0  0
  8 10  1  0  0  0  0
  8 11  2  0  0  0  0
  9 13  1  0  0  0  0
  9 14  1  0  0  0  0
  9 15  1  0  0  0  0
 10 16  1  0  0  0  0
 10 17  1  0  0  0  0
 10 18  1  0  0  0  0
 19 20  1  0  0  0  0
 19 28  1  0  0  0  0
 19 29  1  0  0  0  0
 20 21  4  0  0  0  0
 20 25  4  0  0  0  0
 21 22  4  0  0  0  0
 21 30  1  0  0  0  0
 22 23  4  0  0  0  0
 22 27  1  0  0  0  0
 23 24  4  0  0  0  0
 23 26  1  0  0  0  0
 24 25  4  0  0  0  0
 24 31  1  0  0  0  0
 25 32  1  0  0  0  0
 26 33  1  0  0  0  0
 27 34  1  0  0  0  0
M  END
> <BCLConfClusterSize>
1

> <ConfClashScore>
0 

> <ConfOneFourInteractionScore>
-0.957364 

> <ConfScore>
0.270534 

> <ConfScorePBest>
0.00230857 

> <ConfTolerance>
0.933836 

> <RosettaParamsInstructions>
M  ROOT 3
M  POLY_N_BB 3
M  POLY_CA_BB 4
M  POLY_C_BB 2
M  POLY_O_BB 5
M  POLY_IGNORE 9 10 11 12 13 14 15 16 17 18 
M  POLY_UPPER 6
M  POLY_LOWER 8
M  POLY_CHG 0
M  POLY_PROPERTIES ALPHA_AA L_AA PROTEIN AROMATIC POLYMER 
M  END

$$$$



 34 34  0  0  0  0  0  0  0  0999 V2000
   -1.2618    1.4646    3.0914 H   0  0  0  1  0  0  0  0  0  0  0  0
   -2.4107    3.1910    3.5619 C   0  0  0  1  0  0  0  0  0  0  0  0
   -3.1697    1.2228    2.3086 N   0  0  0  1  0  0  0  0  0  0  0  0
   -2.0183    2.0565    2.6200 C   0  0  0  1  0  0  0  0  0  0  0  0
   -1.5719    3.9723    4.0027 O   0  0  0  1  0  0  0  0  0  0  0  0
   -3.7389    3.2719    3.8728 N   0  0  0  1  0  0  0  0  0  0  0  0
   -3.7470    1.5056    1.5689 H   0  0  0  1  0  0  0  0  0  0  0  0
   -3.4990    0.1009    2.9551 C   0  0  0  1  0  0  0  0  0  0  0  0
   -4.3011    4.2407    4.7848 C   0  0  0  1  0  0  0  0  0  0  0  0
   -4.6662   -0.6747    2.3760 C   0  0  0  1  0  0  0  0  0  0  0  0
   -2.9059   -0.2927    3.9560 O   0  0  0  1  0  0  0  0  0  0  0  0
   -4.3488    2.6319    3.4500 H   0  0  0  1  0  0  0  0  0  0  0  0
   -3.5686    4.9880    5.0081 H   0  0  0  1  0  0  0  0  0  0  0  0
   -4.5965    3.7498    5.6885 H   0  0  0  1  0  0  0  0  0  0  0  0
   -5.1545    4.7018    4.3333 H   0  0  0  1  0  0  0  0  0  0  0  0
   -4.7153   -1.6407    2.8336 H   0  0  0  1  0  0  0  0  0  0  0  0
   -4.5310   -0.7868    1.3205 H   0  0  0  1  0  0  0  0  0  0  0  0
   -5.5758   -0.1440    2.5653 H   0  0  0  1  0  0  0  0  0  0  0  0
   -1.4413    2.6557    1.3337 C   0  0  0  1  0  0  0  0  0  0  0  0
   -1.9431    4.0471    1.0545 C   0  0  0  1  0  0  0  0  0  0  0  0
   -1.0344    5.0821    0.8975 C   0  0  0  1  0  0  0  0  0  0  0  0
   -1.4851    6.3784    0.7339 C   0  0  0  1  0  0  0  0  0  0  0  0
   -2.8458    6.6429    0.7214 C   0  0  0  1  0  0  0  0  0  0  0  0
   -3.7516    5.6109    0.8779 C   0  0  0  1  0  0  0  0  0  0  0  0
   -3.2998    4.3107    1.0420 C   0  0  0  1  0  0  0  0  0  0  0  0
   -3.2630    7.9214    0.5542 O   0  0  0  1  0  0  0  0  0  0  0  0
   -0.6358    7.4236    0.5821 O   0  0  0  1  0  0  0  0  0  0  0  0
   -1.7120    2.0249    0.5129 H   0  0  0  1  0  0  0  0  0  0  0  0
   -0.3754    2.6893    1.4219 H   0  0  0  1  0  0  0  0  0  0  0  0
   -0.0136    4.8833    0.9029 H   0  0  0  1  0  0  0  0  0  0  0  0
   -4.7724    5.8098    0.8725 H   0  0  0  1  0  0  0  0  0  0  0  0
   -3.9816    3.5336    1.1557 H   0  0  0  1  0  0  0  0  0  0  0  0
   -2.8801    8.4755    1.2383 H   0  0  0  1  0  0  0  0  0  0  0  0
   -1.1315    8.2047    0.3257 H   0  0  0  1  0  0  0  0  0  0  0  0
  1  4  1  0  0  0  0
  2  4  1  0  0  0  0
  2  5  2  0  0  0  0
  2  6  1  0  0  0  0
  3  4  1  0  0  0  0
  3  7  1  0  0  0  0
  3  8  1  0  0  0  0
  4 19  1  0  0  0  0
  6  9  1  0  0  0  0
  6 12  1  0  0  0  0
  8 10  1  0  0  0  0
  8 11  2  0  0  0  0
  9 13  1  0  0  0  0
  9 14  1  0  0  0  0
  9 15  1  0  0  0  0
 10 16  1  0  0  0  0
 10 17  1  0  0  0  0
 10 18  1  0  0  0  0
 19 20  1  0  0  0  0
 19 28  1  0  0  0  0
 19 29  1  0  0  0  0
 20 21  4  0  0  0  0
 20 25  4  0  0  0  0
 21 22  4  0  0  0  0
 21 30  1  0  0  0  0
 22 23  4  0  0  0  0
 22 27  1  0  0  0  0
 23 24  4  0  0  0  0
 23 26  1  0  0  0  0
 24 25  4  0  0  0  0
 24 31  1  0  0  0  0
 25 32  1  0  0  0  0
 26 33  1  0  0  0  0
 27 34  1  0  0  0  0
M  END
> <BCLConfClusterSize>
1

> <ConfClashScore>
0 

> <ConfOneFourInteractionScore>
-0.942345 

> <ConfScore>
0.271741 

> <ConfScorePBest>
0.00228009 

> <ConfTolerance>
1.17079 

> <RosettaParamsInstructions>
M  ROOT 3
M  POLY_N_BB 3
M  POLY_CA_BB 4
M  POLY_C_BB 2
M  POLY_O_BB 5
M  POLY_IGNORE 9 10 11 12 13 14 15 16 17 18 
M  POLY_UPPER 6
M  POLY_LOWER 8
M  POLY_CHG 0
M  POLY_PROPERTIES ALPHA_AA L_AA PROTEIN AROMATIC POLYMER 
M  END

$$$$



 34 34  0  0  0  0  0  0  0  0999 V2000
   -0.1093    3.2417    2.7474 H   0  0  0  1  0  0  0  0  0  0  0  0
   -1.9628    2.6664    3.5991 C   0  0  0  1  0  0  0  0  0  0  0  0
   -0.2732    1.1721    2.6465 N   0  0  0  1  0  0  0  0  0  0  0  0
   -0.8631    2.5038    2.5680 C   0  0  0  1  0  0  0  0  0  0  0  0
   -2.7893    3.5737    3.5134 O   0  0  0  1  0  0  0  0  0  0  0  0
   -1.9680    1.7687    4.5887 N   0  0  0  1  0  0  0  0  0  0  0  0
    0.6920    1.0903    2.7950 H   0  0  0  1  0  0  0  0  0  0  0  0
   -1.0031    0.0598    2.5229 C   0  0  0  1  0  0  0  0  0  0  0  0
   -2.9878    1.6744    5.6226 C   0  0  0  1  0  0  0  0  0  0  0  0
   -0.2392   -1.2452    2.6353 C   0  0  0  1  0  0  0  0  0  0  0  0
   -2.2160    0.0739    2.3303 O   0  0  0  1  0  0  0  0  0  0  0  0
   -1.2294    1.1254    4.6207 H   0  0  0  1  0  0  0  0  0  0  0  0
   -3.2103    2.6525    5.9951 H   0  0  0  1  0  0  0  0  0  0  0  0
   -2.6284    1.0615    6.4227 H   0  0  0  1  0  0  0  0  0  0  0  0
   -3.8743    1.2398    5.2102 H   0  0  0  1  0  0  0  0  0  0  0  0
    0.4703   -1.3136    1.8373 H   0  0  0  1  0  0  0  0  0  0  0  0
   -0.9239   -2.0652    2.5748 H   0  0  0  1  0  0  0  0  0  0  0  0
    0.2749   -1.2776    3.5731 H   0  0  0  1  0  0  0  0  0  0  0  0
   -1.4527    2.7357    1.1705 C   0  0  0  1  0  0  0  0  0  0  0  0
   -1.9141    4.1601    1.0156 C   0  0  0  1  0  0  0  0  0  0  0  0
   -1.0347    5.2026    0.7678 C   0  0  0  1  0  0  0  0  0  0  0  0
   -1.5119    6.4934    0.6394 C   0  0  0  1  0  0  0  0  0  0  0  0
   -2.8703    6.7447    0.7531 C   0  0  0  1  0  0  0  0  0  0  0  0
   -3.7470    5.7052    1.0001 C   0  0  0  1  0  0  0  0  0  0  0  0
   -3.2686    4.4106    1.1289 C   0  0  0  1  0  0  0  0  0  0  0  0
   -3.3143    8.0181    0.6180 O   0  0  0  1  0  0  0  0  0  0  0  0
   -0.6912    7.5455    0.4022 O   0  0  0  1  0  0  0  0  0  0  0  0
   -2.2858    2.0795    1.0280 H   0  0  0  1  0  0  0  0  0  0  0  0
   -0.7040    2.5274    0.4349 H   0  0  0  1  0  0  0  0  0  0  0  0
   -0.0159    5.0135    0.6785 H   0  0  0  1  0  0  0  0  0  0  0  0
   -4.7658    5.8944    1.0894 H   0  0  0  1  0  0  0  0  0  0  0  0
   -3.9288    3.6279    1.3108 H   0  0  0  1  0  0  0  0  0  0  0  0
   -4.1671    8.1076    1.0497 H   0  0  0  1  0  0  0  0  0  0  0  0
    0.2033    7.3205    0.6683 H   0  0  0  1  0  0  0  0  0  0  0  0
  1  4  1  0  0  0  0
  2  4  1  0  0  0  0
  2  5  2  0  0  0  0
  2  6  1  0  0  0  0
  3  4  1  0  0  0  0
  3  7  1  0  0  0  0
  3  8  1  0  0  0  0
  4 19  1  0  0  0  0
  6  9  1  0  0  0  0
  6 12  1  0  0  0  0
  8 10  1  0  0  0  0
  8 11  2  0  0  0  0
  9 13  1  0  0  0  0
  9 14  1  0  0  0  0
  9 15  1  0  0  0  0
 10 16  1  0  0  0  0
 10 17  1  0  0  0  0
 10 18  1  0  0  0  0
 19 20  1  0  0  0  0
 19 28  1  0  0  0  0
 19 29  1  0  0  0  0
 20 21  4  0  0  0  0
 20 25  4  0  0  0  0
 21 22  4  0  0  0  0
 21 30  1  0  0  0  0
 22 23  4  0  0  0  0
 22 27  1  0  0  0  0
 23 24  4  0  0  0  0
 23 26  1  0  0  0  0
 24 25  4  0  0  0  0
 24 31  1  0  0  0  0
 25 32  1  0  0  0  0
 26 33  1  0  0  0  0
 27 34  1  0  0  0  0
M  END
> <BCLConfClusterSize>
1

> <ConfClashScore>
0 

> <ConfOneFourInteractionScore>
-0.957723 

> <ConfScore>
0.272288 

> <ConfScorePBest>
0.00225161 

> <ConfTolerance>
1.26857 

> <RosettaParamsInstructions>
M  ROOT 3
M  POLY_N_BB 3
M  POLY_CA_BB 4
M  POLY_C_BB 2
M  POLY_O_BB 5
M  POLY_IGNORE 9 10 11 12 13 14 15 16 17 18 
M  POLY_UPPER 6
M  POLY_LOWER 8
M  POLY_CHG 0
M  POLY_PROPERTIES ALPHA_AA L_AA PROTEIN AROMATIC POLYMER 
M  END

$$$$



 34 34  0  0  0  0  0  0  0  0999 V2000
   -3.2959    2.0859    0.0761 H   0  0  0  1  0  0  0  0  0  0  0  0
   -1.9182    0.5203   -0.2946 C   0  0  0  1  0  0  0  0  0  0  0  0
   -3.0695    0.9838    1.8095 N   0  0  0  1  0  0  0  0  0  0  0  0
   -2.5128    1.5928    0.6133 C   0  0  0  1  0  0  0  0  0  0  0  0
   -1.2499   -0.3940    0.1592 O   0  0  0  1  0  0  0  0  0  0  0  0
   -2.1787    0.6536   -1.5982 N   0  0  0  1  0  0  0  0  0  0  0  0
   -2.5308    0.9704    2.6280 H   0  0  0  1  0  0  0  0  0  0  0  0
   -4.3023    0.4361    1.8324 C   0  0  0  1  0  0  0  0  0  0  0  0
   -1.6562   -0.3546   -2.5084 C   0  0  0  1  0  0  0  0  0  0  0  0
   -4.6822   -0.4149    3.0285 C   0  0  0  1  0  0  0  0  0  0  0  0
   -5.0967    0.6201    0.9111 O   0  0  0  1  0  0  0  0  0  0  0  0
   -2.7065    1.4089   -1.9319 H   0  0  0  1  0  0  0  0  0  0  0  0
   -0.7066   -0.6977   -2.1543 H   0  0  0  1  0  0  0  0  0  0  0  0
   -1.5406    0.0710   -3.4833 H   0  0  0  1  0  0  0  0  0  0  0  0
   -2.3374   -1.1783   -2.5568 H   0  0  0  1  0  0  0  0  0  0  0  0
   -3.8257   -0.5535    3.6547 H   0  0  0  1  0  0  0  0  0  0  0  0
   -5.0347   -1.3671    2.6909 H   0  0  0  1  0  0  0  0  0  0  0  0
   -5.4543    0.0754    3.5839 H   0  0  0  1  0  0  0  0  0  0  0  0
   -1.4624    2.6313    0.9717 C   0  0  0  1  0  0  0  0  0  0  0  0
   -1.9434    4.0577    0.9849 C   0  0  0  1  0  0  0  0  0  0  0  0
   -1.0308    5.0982    0.9075 C   0  0  0  1  0  0  0  0  0  0  0  0
   -1.4728    6.4076    0.9250 C   0  0  0  1  0  0  0  0  0  0  0  0
   -2.8289    6.6804    1.0147 C   0  0  0  1  0  0  0  0  0  0  0  0
   -3.7387    5.6428    1.0918 C   0  0  0  1  0  0  0  0  0  0  0  0
   -3.2956    4.3295    1.0742 C   0  0  0  1  0  0  0  0  0  0  0  0
   -3.1888    7.9869    1.0212 O   0  0  0  1  0  0  0  0  0  0  0  0
   -0.6191    7.4580    0.8570 O   0  0  0  1  0  0  0  0  0  0  0  0
   -0.6683    2.5574    0.2584 H   0  0  0  1  0  0  0  0  0  0  0  0
   -1.0889    2.3999    1.9473 H   0  0  0  1  0  0  0  0  0  0  0  0
   -0.0136    4.8936    0.8362 H   0  0  0  1  0  0  0  0  0  0  0  0
   -4.7559    5.8474    1.1631 H   0  0  0  1  0  0  0  0  0  0  0  0
   -3.9806    3.5487    1.1283 H   0  0  0  1  0  0  0  0  0  0  0  0
   -3.2180    8.3158    0.1197 H   0  0  0  1  0  0  0  0  0  0  0  0
   -0.9305    8.0817    0.1969 H   0  0  0  1  0  0  0  0  0  0  0  0
  1  4  1  0  0  0  0
  2  4  1  0  0  0  0
  2  5  2  0  0  0  0
  2  6  1  0  0  0  0
  3  4  1  0  0  0  0
  3  7  1  0  0  0  0
  3  8  1  0  0  0  0
  4 19  1  0  0  0  0
  6  9  1  0  0  0  0
  6 12  1  0  0  0  0
  8 10  1  0  0  0  0
  8 11  2  0  0  0  0
  9 13  1  0  0  0  0
  9 14  1  0  0  0  0
  9 15  1  0  0  0  0
 10 16  1  0  0  0  0
 10 17  1  0  0  0  0
 10 18  1  0  0  0  0
 19 20  1  0  0  0  0
 19 28  1  0  0  0  0
 19 29  1  0  0  0  0
 20 21  4  0  0  0  0
 20 25  4  0  0  0  0
 21 22  4  0  0  0  0
 21 30  1  0  0  0  0
 22 23  4  0  0  0  0
 22 27  1  0  0  0  0
 23 24  4  0  0  0  0
 23 26  1  0  0  0  0
 24 25  4  0  0  0  0
 24 31  1  0  0  0  0
 25 32  1  0  0  0  0
 26 33  1  0  0  0  0
 27 34  1  0  0  0  0
M  END
> <BCLConfClusterSize>
1

> <ConfClashScore>
0 

> <ConfOneFourInteractionScore>
-0.963005 

> <ConfScore>
0.289531 

> <ConfScorePBest>
0.00222313 

> <ConfTolerance>
1.38664 

> <RosettaParamsInstructions>
M  ROOT 3
M  POLY_N_BB 3
M  POLY_CA_BB 4
M  POLY_C_BB 2
M  POLY_O_BB 5
M  POLY_IGNORE 9 10 11 12 13 14 15 16 17 18 
M  POLY_UPPER 6
M  POLY_LOWER 8
M  POLY_CHG 0
M  POLY_PROPERTIES ALPHA_AA L_AA PROTEIN AROMATIC POLYMER 
M  END

$$$$



 34 34  0  0  0  0  0  0  0  0999 V2000
   -0.5074    1.3164    2.2964 H   0  0  0  1  0  0  0  0  0  0  0  0
    0.5555    3.1487    2.4574 C   0  0  0  1  0  0  0  0  0  0  0  0
   -1.6468    2.6469    3.4106 N   0  0  0  1  0  0  0  0  0  0  0  0
   -0.7397    2.3607    2.3092 C   0  0  0  1  0  0  0  0  0  0  0  0
    1.6462    2.6562    2.1717 O   0  0  0  1  0  0  0  0  0  0  0  0
    0.3788    4.3908    2.9166 N   0  0  0  1  0  0  0  0  0  0  0  0
   -1.3770    3.3022    4.0874 H   0  0  0  1  0  0  0  0  0  0  0  0
   -2.8328    2.0483    3.5309 C   0  0  0  1  0  0  0  0  0  0  0  0
    1.4917    5.3019    3.1433 C   0  0  0  1  0  0  0  0  0  0  0  0
   -3.6868    2.5067    4.6970 C   0  0  0  1  0  0  0  0  0  0  0  0
   -3.2249    1.1794    2.7565 O   0  0  0  1  0  0  0  0  0  0  0  0
   -0.5315    4.6995    3.1073 H   0  0  0  1  0  0  0  0  0  0  0  0
    2.3538    4.7445    3.4452 H   0  0  0  1  0  0  0  0  0  0  0  0
    1.2308    5.9989    3.9121 H   0  0  0  1  0  0  0  0  0  0  0  0
    1.7085    5.8317    2.2393 H   0  0  0  1  0  0  0  0  0  0  0  0
   -4.6555    2.7891    4.3409 H   0  0  0  1  0  0  0  0  0  0  0  0
   -3.2224    3.3464    5.1704 H   0  0  0  1  0  0  0  0  0  0  0  0
   -3.7851    1.7082    5.4024 H   0  0  0  1  0  0  0  0  0  0  0  0
   -1.3969    2.7323    0.9798 C   0  0  0  1  0  0  0  0  0  0  0  0
   -1.9321    4.1391    0.9594 C   0  0  0  1  0  0  0  0  0  0  0  0
   -1.0718    5.2056    0.7494 C   0  0  0  1  0  0  0  0  0  0  0  0
   -1.5631    6.4974    0.7361 C   0  0  0  1  0  0  0  0  0  0  0  0
   -2.9168    6.7262    0.9276 C   0  0  0  1  0  0  0  0  0  0  0  0
   -3.7744    5.6628    1.1370 C   0  0  0  1  0  0  0  0  0  0  0  0
   -3.2819    4.3672    1.1503 C   0  0  0  1  0  0  0  0  0  0  0  0
   -3.3751    8.0014    0.9050 O   0  0  0  1  0  0  0  0  0  0  0  0
   -0.7611    7.5720    0.5399 O   0  0  0  1  0  0  0  0  0  0  0  0
   -2.2072    2.0570    0.7999 H   0  0  0  1  0  0  0  0  0  0  0  0
   -0.6699    2.6332    0.2010 H   0  0  0  1  0  0  0  0  0  0  0  0
   -0.0568    5.0337    0.6017 H   0  0  0  1  0  0  0  0  0  0  0  0
   -4.7894    5.8348    1.2846 H   0  0  0  1  0  0  0  0  0  0  0  0
   -3.9279    3.5668    1.3039 H   0  0  0  1  0  0  0  0  0  0  0  0
   -3.7078    8.2069    0.0283 H   0  0  0  1  0  0  0  0  0  0  0  0
    0.0758    7.4336    0.9894 H   0  0  0  1  0  0  0  0  0  0  0  0
  1  4  1  0  0  0  0
  2  4  1  0  0  0  0
  2  5  2  0  0  0  0
  2  6  1  0  0  0  0
  3  4  1  0  0  0  0
  3  7  1  0  0  0  0
  3  8  1  0  0  0  0
  4 19  1  0  0  0  0
  6  9  1  0  0  0  0
  6 12  1  0  0  0  0
  8 10  1  0  0  0  0
  8 11  2  0  0  0  0
  9 13  1  0  0  0  0
  9 14  1  0  0  0  0
  9 15  1  0  0  0  0
 10 16  1  0  0  0  0
 10 17  1  0  0  0  0
 10 18  1  0  0  0  0
 19 20  1  0  0  0  0
 19 28  1  0  0  0  0
 19 29  1  0  0  0  0
 20 21  4  0  0  0  0
 20 25  4  0  0  0  0
 21 22  4  0  0  0  0
 21 30  1  0  0  0  0
 22 23  4  0  0  0  0
 22 27  1  0  0  0  0
 23 24  4  0  0  0  0
 23 26  1  0  0  0  0
 24 25  4  0  0  0  0
 24 31  1  0  0  0  0
 25 32  1  0  0  0  0
 26 33  1  0  0  0  0
 27 34  1  0  0  0  0
M  END
> <BCLConfClusterSize>
1

> <ConfClashScore>
0 

> <ConfOneFourInteractionScore>
-0.933966 

> <ConfScore>
0.291967 

> <ConfScorePBest>
0.00219465 

> <ConfTolerance>
1.90923 

> <RosettaParamsInstructions>
M  ROOT 3
M  POLY_N_BB 3
M  POLY_CA_BB 4
M  POLY_C_BB 2
M  POLY_O_BB 5
M  POLY_IGNORE 9 10 11 12 13 14 15 16 17 18 
M  POLY_UPPER 6
M  POLY_LOWER 8
M  POLY_CHG 0
M  POLY_PROPERTIES ALPHA_AA L_AA PROTEIN AROMATIC POLYMER 
M  END

$$$$



 34 34  0  0  0  0  0  0  0  0999 V2000
   -2.0298    2.4064    3.1405 H   0  0  0  1  0  0  0  0  0  0  0  0
   -0.7699    0.7858    2.6071 C   0  0  0  1  0  0  0  0  0  0  0  0
   -0.0727    3.0740    3.1262 N   0  0  0  1  0  0  0  0  0  0  0  0
   -1.1431    2.2685    2.5576 C   0  0  0  1  0  0  0  0  0  0  0  0
   -1.6430   -0.0808    2.5876 O   0  0  0  1  0  0  0  0  0  0  0  0
    0.5429    0.5389    2.5824 N   0  0  0  1  0  0  0  0  0  0  0  0
    0.4273    3.6786    2.5389 H   0  0  0  1  0  0  0  0  0  0  0  0
    0.2520    3.0180    4.4210 C   0  0  0  1  0  0  0  0  0  0  0  0
    1.0792   -0.8137    2.5552 C   0  0  0  1  0  0  0  0  0  0  0  0
   -0.5835    2.0794    5.2696 C   0  0  0  1  0  0  0  0  0  0  0  0
    1.1594    3.6727    4.9071 O   0  0  0  1  0  0  0  0  0  0  0  0
    1.1664    1.2949    2.5827 H   0  0  0  1  0  0  0  0  0  0  0  0
    0.4283   -1.4670    3.0978 H   0  0  0  1  0  0  0  0  0  0  0  0
    2.0493   -0.8217    3.0065 H   0  0  0  1  0  0  0  0  0  0  0  0
    1.1543   -1.1470    1.5412 H   0  0  0  1  0  0  0  0  0  0  0  0
   -0.0430    1.1709    5.4351 H   0  0  0  1  0  0  0  0  0  0  0  0
   -1.5003    1.8615    4.7628 H   0  0  0  1  0  0  0  0  0  0  0  0
   -0.7967    2.5436    6.2098 H   0  0  0  1  0  0  0  0  0  0  0  0
   -1.4452    2.6968    1.1276 C   0  0  0  1  0  0  0  0  0  0  0  0
   -1.9301    4.1184    1.0278 C   0  0  0  1  0  0  0  0  0  0  0  0
   -1.0182    5.1556    0.9090 C   0  0  0  1  0  0  0  0  0  0  0  0
   -1.4641    6.4610    0.8228 C   0  0  0  1  0  0  0  0  0  0  0  0
   -2.8231    6.7327    0.8498 C   0  0  0  1  0  0  0  0  0  0  0  0
   -3.7321    5.6984    0.9683 C   0  0  0  1  0  0  0  0  0  0  0  0
   -3.2852    4.3891    1.0547 C   0  0  0  1  0  0  0  0  0  0  0  0
   -3.1864    8.0349    0.7555 O   0  0  0  1  0  0  0  0  0  0  0  0
   -0.5529    7.4582    0.7126 O   0  0  0  1  0  0  0  0  0  0  0  0
   -2.2002    2.0508    0.7308 H   0  0  0  1  0  0  0  0  0  0  0  0
   -0.5515    2.6003    0.5472 H   0  0  0  1  0  0  0  0  0  0  0  0
    0.0013    4.9516    0.8847 H   0  0  0  1  0  0  0  0  0  0  0  0
   -4.7516    5.9025    0.9926 H   0  0  0  1  0  0  0  0  0  0  0  0
   -3.9695    3.6106    1.1398 H   0  0  0  1  0  0  0  0  0  0  0  0
   -3.9904    8.1806    1.2595 H   0  0  0  1  0  0  0  0  0  0  0  0
   -0.3316    7.5893   -0.2123 H   0  0  0  1  0  0  0  0  0  0  0  0
  1  4  1  0  0  0  0
  2  4  1  0  0  0  0
  2  5  2  0  0  0  0
  2  6  1  0  0  0  0
  3  4  1  0  0  0  0
  3  7  1  0  0  0  0
  3  8  1  0  0  0  0
  4 19  1  0  0  0  0
  6  9  1  0  0  0  0
  6 12  1  0  0  0  0
  8 10  1  0  0  0  0
  8 11  2  0  0  0  0
  9 13  1  0  0  0  0
  9 14  1  0  0  0  0
  9 15  1  0  0  0  0
 10 16  1  0  0  0  0
 10 17  1  0  0  0  0
 10 18  1  0  0  0  0
 19 20  1  0  0  0  0
 19 28  1  0  0  0  0
 19 29  1  0  0  0  0
 20 21  4  0  0  0  0
 20 25  4  0  0  0  0
 21 22  4  0  0  0  0
 21 30  1  0  0  0  0
 22 23  4  0  0  0  0
 22 27  1  0  0  0  0
 23 24  4  0  0  0  0
 23 26  1  0  0  0  0
 24 25  4  0  0  0  0
 24 31  1  0  0  0  0
 25 32  1  0  0  0  0
 26 33  1  0  0  0  0
 27 34  1  0  0  0  0
M  END
> <BCLConfClusterSize>
1

> <ConfClashScore>
0 

> <ConfOneFourInteractionScore>
-0.94165 

> <ConfScore>
0.293825 

> <ConfScorePBest>
0.00216617 

> <ConfTolerance>
2.32102 

> <RosettaParamsInstructions>
M  ROOT 3
M  POLY_N_BB 3
M  POLY_CA_BB 4
M  POLY_C_BB 2
M  POLY_O_BB 5
M  POLY_IGNORE 9 10 11 12 13 14 15 16 17 18 
M  POLY_UPPER 6
M  POLY_LOWER 8
M  POLY_CHG 0
M  POLY_PROPERTIES ALPHA_AA L_AA PROTEIN AROMATIC POLYMER 
M  END

$$$$
