


 15 15  0  0  0  0  0  0  0  0999 V2000
   22.8813   16.4507    6.5309 C   0  0  0  1  0  0  0  0  0  0  0  0
   22.1790   17.6671    6.5309 C   0  0  0  1  0  0  0  0  0  0  0  0
   20.7745   17.6671    6.5309 C   0  0  0  1  0  0  0  0  0  0  0  0
   20.0723   16.4507    6.5309 C   0  0  0  1  0  0  0  0  0  0  0  0
   20.7744   15.2342    6.5309 C   0  0  0  1  0  0  0  0  0  0  0  0
   23.1242   19.3038    6.5309 Br  0  0  0  1  0  0  0  0  0  0  0  0
   22.2292   15.1473    6.5309 N   0  0  0  1  0  0  0  0  0  0  0  0
   25.0046   15.5244    5.7332 C   0  0  0  1  0  0  0  0  0  0  0  0
   24.3367   16.3569    6.5309 C   0  0  0  1  0  0  0  0  0  0  0  0
   20.2545   18.5678    6.5309 H   0  0  0  1  0  0  0  0  0  0  0  0
   19.0323   16.4508    6.5309 H   0  0  0  1  0  0  0  0  0  0  0  0
   20.2277   14.3495    6.5309 H   0  0  0  1  0  0  0  0  0  0  0  0
   24.4883   14.9237    5.0592 H   0  0  0  1  0  0  0  0  0  0  0  0
   26.0422   15.4754    5.7845 H   0  0  0  1  0  0  0  0  0  0  0  0
   24.8755   16.9648    7.1803 H   0  0  0  1  0  0  0  0  0  0  0  0
  1  2  2  0  0  0  0
  1  7  1  0  0  0  0
  1  9  1  0  0  0  0
  2  3  1  0  0  0  0
  2  6  1  0  0  0  0
  3  4  2  0  0  0  0
  3 10  1  0  0  0  0
  4  5  1  0  0  0  0
  4 11  1  0  0  0  0
  5  7  2  0  0  0  0
  5 12  1  0  0  0  0
  8  9  2  0  0  0  0
  8 13  1  0  0  0  0
  8 14  1  0  0  0  0
  9 15  1  0  0  0  0
M  END
> <BCLConfClusterSize>
1

> <ConfClashScore>
0 

> <ConfOneFourInteractionScore>
-0.999392 

> <ConfScore>
0.391628 

> <ConfScorePBest>
1 

> <SampleByParts>
0 7 8 

$$$$



 26 26  0  0  0  0  0  0  0  0999 V2000
   22.8813   16.4507    6.5309 C   0  0  0  1  0  0  0  0  0  0  0  0
   22.1790   17.6671    6.5309 C   0  0  0  1  0  0  0  0  0  0  0  0
   20.7745   17.6671    6.5309 C   0  0  0  1  0  0  0  0  0  0  0  0
   20.0723   16.4507    6.5309 C   0  0  0  1  0  0  0  0  0  0  0  0
   20.7744   15.2342    6.5309 C   0  0  0  1  0  0  0  0  0  0  0  0
   23.1242   19.3038    6.5309 Br  0  0  0  1  0  0  0  0  0  0  0  0
   22.2292   15.1473    6.5309 N   0  0  0  1  0  0  0  0  0  0  0  0
   18.0808   20.9726    7.5898 C   0  0  0  1  0  0  0  0  0  0  0  0
   18.7262   18.7834    6.6832 O   0  0  0  1  0  0  0  0  0  0  0  0
   18.1141   20.5526    5.0935 C   0  0  0  1  0  0  0  0  0  0  0  0
   16.4699   19.3579    6.5563 C   0  0  0  1  0  0  0  0  0  0  0  0
   20.0439   18.9557    6.5309 C   0  0  0  1  0  0  0  0  0  0  0  0
   17.8606   19.9658    6.4726 C   0  0  0  1  0  0  0  0  0  0  0  0
   20.5631   20.0351    6.4092 O   0  0  0  1  0  0  0  0  0  0  0  0
   23.9208   16.4817    6.5309 H   0  0  0  1  0  0  0  0  0  0  0  0
   19.0323   16.4508    6.5309 H   0  0  0  1  0  0  0  0  0  0  0  0
   20.2277   14.3495    6.5309 H   0  0  0  1  0  0  0  0  0  0  0  0
   18.8769   20.6372    8.2211 H   0  0  0  1  0  0  0  0  0  0  0  0
   17.1844   21.0670    8.1664 H   0  0  0  1  0  0  0  0  0  0  0  0
   18.3360   21.9225    7.1684 H   0  0  0  1  0  0  0  0  0  0  0  0
   18.1010   19.7697    4.3643 H   0  0  0  1  0  0  0  0  0  0  0  0
   19.0692   21.0349    5.0815 H   0  0  0  1  0  0  0  0  0  0  0  0
   17.3507   21.2663    4.8640 H   0  0  0  1  0  0  0  0  0  0  0  0
   15.7391   20.1054    6.3282 H   0  0  0  1  0  0  0  0  0  0  0  0
   16.3026   18.9858    7.5454 H   0  0  0  1  0  0  0  0  0  0  0  0
   16.3893   18.5546    5.8540 H   0  0  0  1  0  0  0  0  0  0  0  0
  1  2  2  0  0  0  0
  1  7  1  0  0  0  0
  1 15  1  0  0  0  0
  2  3  1  0  0  0  0
  2  6  1  0  0  0  0
  3  4  2  0  0  0  0
  3 12  1  0  0  0  0
  4  5  1  0  0  0  0
  4 16  1  0  0  0  0
  5  7  2  0  0  0  0
  5 17  1  0  0  0  0
  8 13  1  0  0  0  0
  8 18  1  0  0  0  0
  8 19  1  0  0  0  0
  8 20  1  0  0  0  0
  9 12  1  0  0  0  0
  9 13  1  0  0  0  0
 10 13  1  0  0  0  0
 10 21  1  0  0  0  0
 10 22  1  0  0  0  0
 10 23  1  0  0  0  0
 11 13  1  0  0  0  0
 11 24  1  0  0  0  0
 11 25  1  0  0  0  0
 11 26  1  0  0  0  0
 12 14  2  0  0  0  0
M  END
> <BCLConfClusterSize>
1

> <ConfClashScore>
0 

> <ConfOneFourInteractionScore>
-1 

> <ConfScore>
-0.0697189 

> <ConfScorePBest>
1 

> <SampleByParts>
2 7 8 9 10 11 12 13 

$$$$



 18 18  0  0  0  0  0  0  0  0999 V2000
   22.8813   16.4507    6.5309 C   0  0  0  1  0  0  0  0  0  0  0  0
   22.1790   17.6671    6.5309 C   0  0  0  1  0  0  0  0  0  0  0  0
   20.7745   17.6671    6.5309 C   0  0  0  1  0  0  0  0  0  0  0  0
   20.0723   16.4507    6.5309 C   0  0  0  1  0  0  0  0  0  0  0  0
   20.7744   15.2342    6.5309 C   0  0  0  1  0  0  0  0  0  0  0  0
   23.1242   19.3038    6.5309 Br  0  0  0  1  0  0  0  0  0  0  0  0
   22.2292   15.1473    6.5309 N   0  0  0  1  0  0  0  0  0  0  0  0
   17.9270   16.3726    5.3939 C   0  0  0  1  0  0  0  0  0  0  0  0
   16.4217   16.3839    5.5762 C   0  0  0  1  0  0  0  0  0  0  0  0
   18.6578   16.4508    6.5309 N   0  0  0  1  0  0  0  0  0  0  0  0
   18.4299   16.2972    4.2849 O   0  0  0  1  0  0  0  0  0  0  0  0
   23.9208   16.4817    6.5309 H   0  0  0  1  0  0  0  0  0  0  0  0
   20.2545   18.5678    6.5309 H   0  0  0  1  0  0  0  0  0  0  0  0
   20.2277   14.3495    6.5309 H   0  0  0  1  0  0  0  0  0  0  0  0
   15.9981   15.5229    5.1027 H   0  0  0  1  0  0  0  0  0  0  0  0
   16.0158   17.2697    5.1341 H   0  0  0  1  0  0  0  0  0  0  0  0
   16.1891   16.3669    6.6205 H   0  0  0  1  0  0  0  0  0  0  0  0
   18.1877   16.5098    7.3888 H   0  0  0  1  0  0  0  0  0  0  0  0
  1  2  2  0  0  0  0
  1  7  1  0  0  0  0
  1 12  1  0  0  0  0
  2  3  1  0  0  0  0
  2  6  1  0  0  0  0
  3  4  2  0  0  0  0
  3 13  1  0  0  0  0
  4  5  1  0  0  0  0
  4 10  1  0  0  0  0
  5  7  2  0  0  0  0
  5 14  1  0  0  0  0
  8  9  1  0  0  0  0
  8 10  1  0  0  0  0
  8 11  2  0  0  0  0
  9 15  1  0  0  0  0
  9 16  1  0  0  0  0
  9 17  1  0  0  0  0
 10 18  1  0  0  0  0
M  END
> <BCLConfClusterSize>
1

> <ConfClashScore>
0 

> <ConfOneFourInteractionScore>
-1 

> <ConfScore>
0.00797744 

> <ConfScorePBest>
1 

> <SampleByParts>
3 7 8 9 10 

$$$$



 27 27  0  0  0  0  0  0  0  0999 V2000
   22.8813   16.4507    6.5309 C   0  0  0  1  0  0  0  0  0  0  0  0
   22.1790   17.6671    6.5309 C   0  0  0  1  0  0  0  0  0  0  0  0
   20.7745   17.6671    6.5309 C   0  0  0  1  0  0  0  0  0  0  0  0
   20.0723   16.4507    6.5309 C   0  0  0  1  0  0  0  0  0  0  0  0
   20.7744   15.2342    6.5309 C   0  0  0  1  0  0  0  0  0  0  0  0
   23.1242   19.3038    6.5309 Br  0  0  0  1  0  0  0  0  0  0  0  0
   22.2292   15.1473    6.5309 N   0  0  0  1  0  0  0  0  0  0  0  0
   23.0352   12.4872    5.3109 C   0  0  0  1  0  0  0  0  0  0  0  0
   21.7032   13.2180    4.9352 C   0  0  0  1  0  0  0  0  0  0  0  0
   20.6389   11.0186    7.5454 C   0  0  0  1  0  0  0  0  0  0  0  0
   20.0316   13.8741    6.5309 C   0  0  0  1  0  0  0  0  0  0  0  0
   20.6772   12.9079    5.8946 N   0  0  0  1  0  0  0  0  0  0  0  0
   20.3839   11.4885    6.1316 C   0  0  0  1  0  0  0  0  0  0  0  0
   18.9927   13.7451    7.0561 O   0  0  0  1  0  0  0  0  0  0  0  0
   23.9208   16.4817    6.5309 H   0  0  0  1  0  0  0  0  0  0  0  0
   20.2545   18.5678    6.5309 H   0  0  0  1  0  0  0  0  0  0  0  0
   19.0323   16.4508    6.5309 H   0  0  0  1  0  0  0  0  0  0  0  0
   23.7724   12.6796    4.5595 H   0  0  0  1  0  0  0  0  0  0  0  0
   22.8580   11.4339    5.3749 H   0  0  0  1  0  0  0  0  0  0  0  0
   23.3859   12.8484    6.2550 H   0  0  0  1  0  0  0  0  0  0  0  0
   21.3869   12.8985    3.9642 H   0  0  0  1  0  0  0  0  0  0  0  0
   21.8707   14.2748    4.9265 H   0  0  0  1  0  0  0  0  0  0  0  0
   20.1237   11.6570    8.2323 H   0  0  0  1  0  0  0  0  0  0  0  0
   21.6891   11.0510    7.7477 H   0  0  0  1  0  0  0  0  0  0  0  0
   20.2845   10.0152    7.6568 H   0  0  0  1  0  0  0  0  0  0  0  0
   19.3520   11.3192    5.9052 H   0  0  0  1  0  0  0  0  0  0  0  0
   20.9943   10.9075    5.4721 H   0  0  0  1  0  0  0  0  0  0  0  0
  1  2  2  0  0  0  0
  1  7  1  0  0  0  0
  1 15  1  0  0  0  0
  2  3  1  0  0  0  0
  2  6  1  0  0  0  0
  3  4  2  0  0  0  0
  3 16  1  0  0  0  0
  4  5  1  0  0  0  0
  4 17  1  0  0  0  0
  5  7  2  0  0  0  0
  5 11  1  0  0  0  0
  8  9  1  0  0  0  0
  8 18  1  0  0  0  0
  8 19  1  0  0  0  0
  8 20  1  0  0  0  0
  9 12  1  0  0  0  0
  9 21  1  0  0  0  0
  9 22  1  0  0  0  0
 10 13  1  0  0  0  0
 10 23  1  0  0  0  0
 10 24  1  0  0  0  0
 10 25  1  0  0  0  0
 11 12  1  0  0  0  0
 11 14  2  0  0  0  0
 12 13  1  0  0  0  0
 13 26  1  0  0  0  0
 13 27  1  0  0  0  0
M  END
> <BCLConfClusterSize>
1

> <ConfClashScore>
0.0212357 

> <ConfOneFourInteractionScore>
-0.963536 

> <ConfScore>
3.05882 

> <ConfScorePBest>
1 

> <SampleByParts>
4 7 8 9 10 11 12 13 

$$$$



 19 19  0  0  0  0  0  0  0  0999 V2000
   22.8620   16.4567    6.5319 C   0  0  0  1  0  0  0  0  0  0  0  0
   22.1686   17.6569    6.5316 C   0  0  0  1  0  0  0  0  0  0  0  0
   20.7865   17.6568    6.5332 C   0  0  0  1  0  0  0  0  0  0  0  0
   20.0938   16.4562    6.5296 C   0  0  0  1  0  0  0  0  0  0  0  0
   20.7849   15.2593    6.5299 C   0  0  0  1  0  0  0  0  0  0  0  0
   23.1133   19.2939    6.5292 Br  0  0  0  1  0  0  0  0  0  0  0  0
   22.1711   15.2596    6.5283 C   0  0  0  1  0  0  0  0  0  0  0  0
   23.7734   15.0456    4.1002 C   0  0  0  1  0  0  0  0  0  0  0  0
   24.3711   16.3942    6.5361 C   0  0  0  1  0  0  0  0  0  0  0  0
   25.1348   15.3934    5.2303 S   0  0  0  1  0  0  0  0  0  0  0  0
   20.2663   18.5574    6.5371 H   0  0  0  1  0  0  0  0  0  0  0  0
   19.0538   16.4560    6.5267 H   0  0  0  1  0  0  0  0  0  0  0  0
   20.2650   14.3586    6.5313 H   0  0  0  1  0  0  0  0  0  0  0  0
   22.6913   14.3590    6.5244 H   0  0  0  1  0  0  0  0  0  0  0  0
   24.1544   14.5837    3.2134 H   0  0  0  1  0  0  0  0  0  0  0  0
   23.2816   15.9603    3.8425 H   0  0  0  1  0  0  0  0  0  0  0  0
   23.0763   14.3865    4.5741 H   0  0  0  1  0  0  0  0  0  0  0  0
   24.6784   15.9908    7.4783 H   0  0  0  1  0  0  0  0  0  0  0  0
   24.7394   17.3940    6.4384 H   0  0  0  1  0  0  0  0  0  0  0  0
  1  2  2  0  0  0  0
  1  7  1  0  0  0  0
  1  9  1  0  0  0  0
  2  3  1  0  0  0  0
  2  6  1  0  0  0  0
  3  4  2  0  0  0  0
  3 11  1  0  0  0  0
  4  5  1  0  0  0  0
  4 12  1  0  0  0  0
  5  7  2  0  0  0  0
  5 13  1  0  0  0  0
  7 14  1  0  0  0  0
  8 10  1  0  0  0  0
  8 15  1  0  0  0  0
  8 16  1  0  0  0  0
  8 17  1  0  0  0  0
  9 10  1  0  0  0  0
  9 18  1  0  0  0  0
  9 19  1  0  0  0  0
M  END
> <BCLConfClusterSize>
1

> <ConfClashScore>
0 

> <ConfOneFourInteractionScore>
-0.994667 

> <ConfScore>
0.603668 

> <ConfScorePBest>
1 

> <SampleByParts>
0 7 8 9 

$$$$



 16 16  0  0  0  0  0  0  0  0999 V2000
   22.8620   16.4567    6.5319 C   0  0  0  1  0  0  0  0  0  0  0  0
   22.1686   17.6569    6.5316 C   0  0  0  1  0  0  0  0  0  0  0  0
   20.7865   17.6568    6.5332 C   0  0  0  1  0  0  0  0  0  0  0  0
   20.0938   16.4562    6.5296 C   0  0  0  1  0  0  0  0  0  0  0  0
   20.7849   15.2593    6.5299 C   0  0  0  1  0  0  0  0  0  0  0  0
   23.1133   19.2939    6.5292 Br  0  0  0  1  0  0  0  0  0  0  0  0
   22.1711   15.2596    6.5283 C   0  0  0  1  0  0  0  0  0  0  0  0
   19.7886   19.1014    6.5397 S   0  0  0  1  0  0  0  0  0  0  0  0
   18.1563   18.4407    6.1451 C   0  0  0  1  0  0  0  0  0  0  0  0
   23.9020   16.4569    6.5348 H   0  0  0  1  0  0  0  0  0  0  0  0
   19.0538   16.4560    6.5267 H   0  0  0  1  0  0  0  0  0  0  0  0
   20.2650   14.3586    6.5313 H   0  0  0  1  0  0  0  0  0  0  0  0
   22.6913   14.3590    6.5244 H   0  0  0  1  0  0  0  0  0  0  0  0
   17.4301   19.2244    6.2032 H   0  0  0  1  0  0  0  0  0  0  0  0
   17.9054   17.6699    6.8436 H   0  0  0  1  0  0  0  0  0  0  0  0
   18.1655   18.0360    5.1546 H   0  0  0  1  0  0  0  0  0  0  0  0
  1  2  2  0  0  0  0
  1  7  1  0  0  0  0
  1 10  1  0  0  0  0
  2  3  1  0  0  0  0
  2  6  1  0  0  0  0
  3  4  2  0  0  0  0
  3  8  1  0  0  0  0
  4  5  1  0  0  0  0
  4 11  1  0  0  0  0
  5  7  2  0  0  0  0
  5 12  1  0  0  0  0
  7 13  1  0  0  0  0
  8  9  1  0  0  0  0
  9 14  1  0  0  0  0
  9 15  1  0  0  0  0
  9 16  1  0  0  0  0
M  END
> <BCLConfClusterSize>
1

> <ConfClashScore>
0.00366744 

> <ConfOneFourInteractionScore>
-1 

> <ConfScore>
-0.0156334 

> <ConfScorePBest>
1 

> <SampleByParts>
2 7 8 

$$$$



 18 18  0  0  0  0  0  0  0  0999 V2000
   22.8620   16.4567    6.5319 C   0  0  0  1  0  0  0  0  0  0  0  0
   22.1686   17.6569    6.5316 C   0  0  0  1  0  0  0  0  0  0  0  0
   20.7865   17.6568    6.5332 C   0  0  0  1  0  0  0  0  0  0  0  0
   20.0938   16.4562    6.5296 C   0  0  0  1  0  0  0  0  0  0  0  0
   20.7849   15.2593    6.5299 C   0  0  0  1  0  0  0  0  0  0  0  0
   23.1133   19.2939    6.5292 Br  0  0  0  1  0  0  0  0  0  0  0  0
   22.1711   15.2596    6.5283 C   0  0  0  1  0  0  0  0  0  0  0  0
   18.3225   16.4557    6.5246 S   0  0  0  1  0  0  0  0  0  0  0  0
   17.8256   16.8897    8.1847 C   0  0  0  1  0  0  0  0  0  0  0  0
   17.8820   15.1388    6.1832 O   0  0  0  1  0  0  0  0  0  0  0  0
   17.8852   17.5412    5.6822 O   0  0  0  1  0  0  0  0  0  0  0  0
   23.9020   16.4569    6.5348 H   0  0  0  1  0  0  0  0  0  0  0  0
   20.2663   18.5574    6.5371 H   0  0  0  1  0  0  0  0  0  0  0  0
   20.2650   14.3586    6.5313 H   0  0  0  1  0  0  0  0  0  0  0  0
   22.6913   14.3590    6.5244 H   0  0  0  1  0  0  0  0  0  0  0  0
   18.3565   17.7638    8.4994 H   0  0  0  1  0  0  0  0  0  0  0  0
   18.0489   16.0794    8.8468 H   0  0  0  1  0  0  0  0  0  0  0  0
   16.7739   17.0858    8.2021 H   0  0  0  1  0  0  0  0  0  0  0  0
  1  2  2  0  0  0  0
  1  7  1  0  0  0  0
  1 12  1  0  0  0  0
  2  3  1  0  0  0  0
  2  6  1  0  0  0  0
  3  4  2  0  0  0  0
  3 13  1  0  0  0  0
  4  5  1  0  0  0  0
  4  8  1  0  0  0  0
  5  7  2  0  0  0  0
  5 14  1  0  0  0  0
  7 15  1  0  0  0  0
  8  9  1  0  0  0  0
  8 10  2  0  0  0  0
  8 11  2  0  0  0  0
  9 16  1  0  0  0  0
  9 17  1  0  0  0  0
  9 18  1  0  0  0  0
M  END
> <BCLConfClusterSize>
1

> <ConfClashScore>
0 

> <ConfOneFourInteractionScore>
-1 

> <ConfScore>
-0.543025 

> <ConfScorePBest>
1 

> <SampleByParts>
3 7 8 9 10 

$$$$



 17 17  0  0  0  0  0  0  0  0999 V2000
   22.8620   16.4567    6.5319 C   0  0  0  1  0  0  0  0  0  0  0  0
   22.1686   17.6569    6.5316 C   0  0  0  1  0  0  0  0  0  0  0  0
   20.7865   17.6568    6.5332 C   0  0  0  1  0  0  0  0  0  0  0  0
   20.0938   16.4562    6.5296 C   0  0  0  1  0  0  0  0  0  0  0  0
   20.7849   15.2593    6.5299 C   0  0  0  1  0  0  0  0  0  0  0  0
   23.1133   19.2939    6.5292 Br  0  0  0  1  0  0  0  0  0  0  0  0
   22.1711   15.2596    6.5283 C   0  0  0  1  0  0  0  0  0  0  0  0
   19.9074   13.7386    6.5323 S   0  0  0  1  0  0  0  0  0  0  0  0
   20.0210   13.1529    8.0812 N   0  0  0  1  0  0  0  0  0  0  0  0
   20.6038   12.8043    5.7034 O   0  0  0  1  0  0  0  0  0  0  0  0
   18.5216   14.0079    6.3044 O   0  0  0  1  0  0  0  0  0  0  0  0
   23.9020   16.4569    6.5348 H   0  0  0  1  0  0  0  0  0  0  0  0
   20.2663   18.5574    6.5371 H   0  0  0  1  0  0  0  0  0  0  0  0
   19.0538   16.4560    6.5267 H   0  0  0  1  0  0  0  0  0  0  0  0
   22.6913   14.3590    6.5244 H   0  0  0  1  0  0  0  0  0  0  0  0
   20.5914   13.6542    8.7007 H   0  0  0  1  0  0  0  0  0  0  0  0
   19.5414   12.3458    8.3622 H   0  0  0  1  0  0  0  0  0  0  0  0
  1  2  2  0  0  0  0
  1  7  1  0  0  0  0
  1 12  1  0  0  0  0
  2  3  1  0  0  0  0
  2  6  1  0  0  0  0
  3  4  2  0  0  0  0
  3 13  1  0  0  0  0
  4  5  1  0  0  0  0
  4 14  1  0  0  0  0
  5  7  2  0  0  0  0
  5  8  1  0  0  0  0
  7 15  1  0  0  0  0
  8  9  1  0  0  0  0
  8 10  2  0  0  0  0
  8 11  2  0  0  0  0
  9 16  1  0  0  0  0
  9 17  1  0  0  0  0
M  END
> <BCLConfClusterSize>
1

> <ConfClashScore>
0 

> <ConfOneFourInteractionScore>
-1 

> <ConfScore>
1.63185 

> <ConfScorePBest>
1 

> <SampleByParts>
4 7 8 9 10 

$$$$



 22 22  0  0  0  0  0  0  0  0999 V2000
   22.8379   16.4715    6.5409 N   0  0  0  1  0  0  0  0  0  0  0  0
   22.1428   17.6059    6.5348 C   0  0  0  1  0  0  0  0  0  0  0  0
   20.7431   17.6401    6.5349 C   0  0  0  1  0  0  0  0  0  0  0  0
   20.0810   16.4402    6.5319 C   0  0  0  1  0  0  0  0  0  0  0  0
   20.8565   15.2755    6.5224 C   0  0  0  1  0  0  0  0  0  0  0  0
   23.1389   19.2121    6.5260 Br  0  0  0  1  0  0  0  0  0  0  0  0
   22.1863   15.2882    6.5355 N   0  0  0  1  0  0  0  0  0  0  0  0
   19.9794   18.9691    6.5382 C   0  0  0  1  0  0  0  0  0  0  0  0
   19.8711   19.5422    7.9555 C   0  0  0  1  0  0  0  0  0  0  0  0
   20.7186   19.9818    5.6567 C   0  0  0  1  0  0  0  0  0  0  0  0
   18.5629   18.7722    5.9916 C   0  0  0  1  0  0  0  0  0  0  0  0
   19.0419   16.3969    6.5365 H   0  0  0  1  0  0  0  0  0  0  0  0
   20.3700   14.3565    6.5042 H   0  0  0  1  0  0  0  0  0  0  0  0
   18.9907   20.1456    8.0304 H   0  0  0  1  0  0  0  0  0  0  0  0
   20.7326   20.1412    8.1645 H   0  0  0  1  0  0  0  0  0  0  0  0
   19.8143   18.7397    8.6610 H   0  0  0  1  0  0  0  0  0  0  0  0
   20.0091   20.5410    5.0832 H   0  0  0  1  0  0  0  0  0  0  0  0
   21.3810   19.4627    4.9960 H   0  0  0  1  0  0  0  0  0  0  0  0
   21.2816   20.6489    6.2755 H   0  0  0  1  0  0  0  0  0  0  0  0
   18.0036   19.6760    6.1150 H   0  0  0  1  0  0  0  0  0  0  0  0
   18.0817   17.9796    6.5257 H   0  0  0  1  0  0  0  0  0  0  0  0
   18.6133   18.5233    4.9522 H   0  0  0  1  0  0  0  0  0  0  0  0
  1  2  2  0  0  0  0
  1  7  1  0  0  0  0
  2  3  1  0  0  0  0
  2  6  1  0  0  0  0
  3  4  2  0  0  0  0
  3  8  1  0  0  0  0
  4  5  1  0  0  0  0
  4 12  1  0  0  0  0
  5  7  2  0  0  0  0
  5 13  1  0  0  0  0
  8  9  1  0  0  0  0
  8 10  1  0  0  0  0
  8 11  1  0  0  0  0
  9 14  1  0  0  0  0
  9 15  1  0  0  0  0
  9 16  1  0  0  0  0
 10 17  1  0  0  0  0
 10 18  1  0  0  0  0
 10 19  1  0  0  0  0
 11 20  1  0  0  0  0
 11 21  1  0  0  0  0
 11 22  1  0  0  0  0
M  END
> <BCLConfClusterSize>
1

> <ConfClashScore>
0.0118892 

> <ConfOneFourInteractionScore>
-1 

> <ConfScore>
1.30071 

> <ConfScorePBest>
1 

> <SampleByParts>
2 7 8 9 10 

$$$$



 17 17  0  0  0  0  0  0  0  0999 V2000
   22.8379   16.4715    6.5409 N   0  0  0  1  0  0  0  0  0  0  0  0
   22.1428   17.6059    6.5348 C   0  0  0  1  0  0  0  0  0  0  0  0
   20.7431   17.6401    6.5349 C   0  0  0  1  0  0  0  0  0  0  0  0
   20.0810   16.4402    6.5319 C   0  0  0  1  0  0  0  0  0  0  0  0
   20.8565   15.2755    6.5224 C   0  0  0  1  0  0  0  0  0  0  0  0
   23.1389   19.2121    6.5260 Br  0  0  0  1  0  0  0  0  0  0  0  0
   22.1863   15.2882    6.5355 N   0  0  0  1  0  0  0  0  0  0  0  0
   17.0504   18.3499    6.7473 C   0  0  0  1  0  0  0  0  0  0  0  0
   17.9440   17.6684    6.0752 C   0  0  0  1  0  0  0  0  0  0  0  0
   18.5719   16.3766    6.5386 C   0  0  0  1  0  0  0  0  0  0  0  0
   20.2254   18.5421    6.5372 H   0  0  0  1  0  0  0  0  0  0  0  0
   20.3700   14.3565    6.5042 H   0  0  0  1  0  0  0  0  0  0  0  0
   16.6761   19.2398    6.3604 H   0  0  0  1  0  0  0  0  0  0  0  0
   16.7151   18.0014    7.6680 H   0  0  0  1  0  0  0  0  0  0  0  0
   18.2433   18.0454    5.1533 H   0  0  0  1  0  0  0  0  0  0  0  0
   18.2404   16.1706    7.5349 H   0  0  0  1  0  0  0  0  0  0  0  0
   18.2576   15.5880    5.8873 H   0  0  0  1  0  0  0  0  0  0  0  0
  1  2  2  0  0  0  0
  1  7  1  0  0  0  0
  2  3  1  0  0  0  0
  2  6  1  0  0  0  0
  3  4  2  0  0  0  0
  3 11  1  0  0  0  0
  4  5  1  0  0  0  0
  4 10  1  0  0  0  0
  5  7  2  0  0  0  0
  5 12  1  0  0  0  0
  8  9  2  0  0  0  0
  8 13  1  0  0  0  0
  8 14  1  0  0  0  0
  9 10  1  0  0  0  0
  9 15  1  0  0  0  0
 10 16  1  0  0  0  0
 10 17  1  0  0  0  0
M  END
> <BCLConfClusterSize>
1

> <ConfClashScore>
0 

> <ConfOneFourInteractionScore>
-0.981007 

> <ConfScore>
-0.245124 

> <ConfScorePBest>
1 

> <SampleByParts>
3 7 8 9 

$$$$



 17 17  0  0  0  0  0  0  0  0999 V2000
   22.8379   16.4715    6.5409 N   0  0  0  1  0  0  0  0  0  0  0  0
   22.1428   17.6059    6.5348 C   0  0  0  1  0  0  0  0  0  0  0  0
   20.7431   17.6401    6.5349 C   0  0  0  1  0  0  0  0  0  0  0  0
   20.0810   16.4402    6.5319 C   0  0  0  1  0  0  0  0  0  0  0  0
   20.8565   15.2755    6.5224 C   0  0  0  1  0  0  0  0  0  0  0  0
   23.1389   19.2121    6.5260 Br  0  0  0  1  0  0  0  0  0  0  0  0
   22.1863   15.2882    6.5355 N   0  0  0  1  0  0  0  0  0  0  0  0
   17.5971   14.4960    7.7364 C   0  0  0  1  0  0  0  0  0  0  0  0
   19.9998   13.7396    6.4916 S   0  0  0  1  0  0  0  0  0  0  0  0
   18.2409   14.1348    6.4078 C   0  0  0  1  0  0  0  0  0  0  0  0
   20.2254   18.5421    6.5372 H   0  0  0  1  0  0  0  0  0  0  0  0
   19.0419   16.3969    6.5365 H   0  0  0  1  0  0  0  0  0  0  0  0
   17.6363   13.6523    8.3934 H   0  0  0  1  0  0  0  0  0  0  0  0
   16.5767   14.7742    7.5741 H   0  0  0  1  0  0  0  0  0  0  0  0
   18.1250   15.3157    8.1772 H   0  0  0  1  0  0  0  0  0  0  0  0
   18.1192   14.9651    5.7440 H   0  0  0  1  0  0  0  0  0  0  0  0
   17.7285   13.2829    6.0120 H   0  0  0  1  0  0  0  0  0  0  0  0
  1  2  2  0  0  0  0
  1  7  1  0  0  0  0
  2  3  1  0  0  0  0
  2  6  1  0  0  0  0
  3  4  2  0  0  0  0
  3 11  1  0  0  0  0
  4  5  1  0  0  0  0
  4 12  1  0  0  0  0
  5  7  2  0  0  0  0
  5  9  1  0  0  0  0
  8 10  1  0  0  0  0
  8 13  1  0  0  0  0
  8 14  1  0  0  0  0
  8 15  1  0  0  0  0
  9 10  1  0  0  0  0
 10 16  1  0  0  0  0
 10 17  1  0  0  0  0
M  END
> <BCLConfClusterSize>
1

> <ConfClashScore>
0 

> <ConfOneFourInteractionScore>
-0.982443 

> <ConfScore>
-0.228857 

> <ConfScorePBest>
1 

> <SampleByParts>
4 7 8 9 

$$$$



 14 14  0  0  0  0  0  0  0  0999 V2000
   22.8322   16.4016    6.5312 C   0  0  0  1  0  0  0  0  0  0  0  0
   22.1469   17.6042    6.5311 C   0  0  0  1  0  0  0  0  0  0  0  0
   20.8086   17.6562    6.5314 N   0  0  0  1  0  0  0  0  0  0  0  0
   20.1641   16.4820    6.5309 C   0  0  0  1  0  0  0  0  0  0  0  0
   20.8495   15.2795    6.5309 C   0  0  0  1  0  0  0  0  0  0  0  0
   23.0753   19.2505    6.5307 Br  0  0  0  1  0  0  0  0  0  0  0  0
   22.1877   15.2275    6.5306 N   0  0  0  1  0  0  0  0  0  0  0  0
   24.1801   16.4536    6.5319 O   0  0  0  1  0  0  0  0  0  0  0  0
   24.8424   15.1677    6.5540 C   0  0  0  1  0  0  0  0  0  0  0  0
   19.1241   16.4736    6.5305 H   0  0  0  1  0  0  0  0  0  0  0  0
   20.3096   14.3906    6.5311 H   0  0  0  1  0  0  0  0  0  0  0  0
   24.6123   14.6320    5.6568 H   0  0  0  1  0  0  0  0  0  0  0  0
   24.5043   14.6072    7.4004 H   0  0  0  1  0  0  0  0  0  0  0  0
   25.9003   15.3128    6.6211 H   0  0  0  1  0  0  0  0  0  0  0  0
  1  2  2  0  0  0  0
  1  7  1  0  0  0  0
  1  8  1  0  0  0  0
  2  3  1  0  0  0  0
  2  6  1  0  0  0  0
  3  4  2  0  0  0  0
  4  5  1  0  0  0  0
  4 10  1  0  0  0  0
  5  7  2  0  0  0  0
  5 11  1  0  0  0  0
  8  9  1  0  0  0  0
  9 12  1  0  0  0  0
  9 13  1  0  0  0  0
  9 14  1  0  0  0  0
M  END
> <BCLConfClusterSize>
1

> <ConfClashScore>
0 

> <ConfOneFourInteractionScore>
-1 

> <ConfScore>
-0.181067 

> <ConfScorePBest>
1 

> <SampleByParts>
0 7 8 

$$$$



 17 17  0  0  0  0  0  0  0  0999 V2000
   22.8322   16.4016    6.5312 C   0  0  0  1  0  0  0  0  0  0  0  0
   22.1469   17.6042    6.5311 C   0  0  0  1  0  0  0  0  0  0  0  0
   20.8086   17.6562    6.5314 N   0  0  0  1  0  0  0  0  0  0  0  0
   20.1641   16.4820    6.5309 C   0  0  0  1  0  0  0  0  0  0  0  0
   20.8495   15.2795    6.5309 C   0  0  0  1  0  0  0  0  0  0  0  0
   23.0753   19.2505    6.5307 Br  0  0  0  1  0  0  0  0  0  0  0  0
   22.1877   15.2275    6.5306 N   0  0  0  1  0  0  0  0  0  0  0  0
   17.1912   14.6141    5.8268 C   0  0  0  1  0  0  0  0  0  0  0  0
   17.9912   15.5996    5.5777 C   0  0  0  1  0  0  0  0  0  0  0  0
   18.6649   16.5545    6.5303 C   0  0  0  1  0  0  0  0  0  0  0  0
   23.8722   16.4099    6.5318 H   0  0  0  1  0  0  0  0  0  0  0  0
   20.3096   14.3906    6.5311 H   0  0  0  1  0  0  0  0  0  0  0  0
   16.8069   14.0459    5.0451 H   0  0  0  1  0  0  0  0  0  0  0  0
   16.9323   14.3899    6.8088 H   0  0  0  1  0  0  0  0  0  0  0  0
   18.2008   15.7565    4.5712 H   0  0  0  1  0  0  0  0  0  0  0  0
   18.3790   17.5502    6.2626 H   0  0  0  1  0  0  0  0  0  0  0  0
   18.3199   16.3377    7.5197 H   0  0  0  1  0  0  0  0  0  0  0  0
  1  2  2  0  0  0  0
  1  7  1  0  0  0  0
  1 11  1  0  0  0  0
  2  3  1  0  0  0  0
  2  6  1  0  0  0  0
  3  4  2  0  0  0  0
  4  5  1  0  0  0  0
  4 10  1  0  0  0  0
  5  7  2  0  0  0  0
  5 12  1  0  0  0  0
  8  9  2  0  0  0  0
  8 13  1  0  0  0  0
  8 14  1  0  0  0  0
  9 10  1  0  0  0  0
  9 15  1  0  0  0  0
 10 16  1  0  0  0  0
 10 17  1  0  0  0  0
M  END
> <BCLConfClusterSize>
1

> <ConfClashScore>
0 

> <ConfOneFourInteractionScore>
-0.974578 

> <ConfScore>
-0.243197 

> <ConfScorePBest>
1 

> <SampleByParts>
3 7 8 9 

$$$$



 17 18  0  0  0  0  0  0  0  0999 V2000
   22.8322   16.4016    6.5312 C   0  0  0  1  0  0  0  0  0  0  0  0
   22.1469   17.6042    6.5311 C   0  0  0  1  0  0  0  0  0  0  0  0
   20.8086   17.6562    6.5314 N   0  0  0  1  0  0  0  0  0  0  0  0
   20.1641   16.4820    6.5309 C   0  0  0  1  0  0  0  0  0  0  0  0
   20.8495   15.2795    6.5309 C   0  0  0  1  0  0  0  0  0  0  0  0
   23.0753   19.2505    6.5307 Br  0  0  0  1  0  0  0  0  0  0  0  0
   22.1877   15.2275    6.5306 N   0  0  0  1  0  0  0  0  0  0  0  0
   20.9903   12.7180    6.6369 C   0  0  0  1  0  0  0  0  0  0  0  0
   20.2440   13.0073    5.3688 C   0  0  0  1  0  0  0  0  0  0  0  0
   20.1379   13.9436    6.5312 C   0  0  0  1  0  0  0  0  0  0  0  0
   23.8722   16.4099    6.5318 H   0  0  0  1  0  0  0  0  0  0  0  0
   19.1241   16.4736    6.5305 H   0  0  0  1  0  0  0  0  0  0  0  0
   22.0562   12.8083    6.6629 H   0  0  0  1  0  0  0  0  0  0  0  0
   20.6852   11.9065    7.2640 H   0  0  0  1  0  0  0  0  0  0  0  0
   19.4064   12.4022    5.0911 H   0  0  0  1  0  0  0  0  0  0  0  0
   20.7774   13.3039    4.4899 H   0  0  0  1  0  0  0  0  0  0  0  0
   19.2132   13.9150    7.0689 H   0  0  0  1  0  0  0  0  0  0  0  0
  1  2  2  0  0  0  0
  1  7  1  0  0  0  0
  1 11  1  0  0  0  0
  2  3  1  0  0  0  0
  2  6  1  0  0  0  0
  3  4  2  0  0  0  0
  4  5  1  0  0  0  0
  4 12  1  0  0  0  0
  5  7  2  0  0  0  0
  5 10  1  0  0  0  0
  8  9  1  0  0  0  0
  8 10  1  0  0  0  0
  8 13  1  0  0  0  0
  8 14  1  0  0  0  0
  9 10  1  0  0  0  0
  9 15  1  0  0  0  0
  9 16  1  0  0  0  0
 10 17  1  0  0  0  0
M  END
> <BCLConfClusterSize>
1

> <ConfClashScore>
0 

> <ConfOneFourInteractionScore>
-1 

> <ConfScore>
0 

> <ConfScorePBest>
1 

> <SampleByParts>
4 7 8 9 

$$$$



 26 26  0  0  0  0  0  0  0  0999 V2000
   20.7956   17.5852    6.5323 C   0  0  0  1  0  0  0  0  0  0  0  0
   22.1751   17.6315    6.5317 C   0  0  0  1  0  0  0  0  0  0  0  0
   22.8363   16.4178    6.5334 C   0  0  0  1  0  0  0  0  0  0  0  0
   22.1866   15.2418    6.5299 N   0  0  0  1  0  0  0  0  0  0  0  0
   20.8561   15.3215    6.5293 C   0  0  0  1  0  0  0  0  0  0  0  0
   23.1128   19.2725    6.5288 Br  0  0  0  1  0  0  0  0  0  0  0  0
   20.1131   16.4307    6.5297 N   0  0  0  1  0  0  0  0  0  0  0  0
   17.7509   16.8525    7.8208 C   0  0  0  1  0  0  0  0  0  0  0  0
   18.7732   17.7997    8.3986 C   0  0  0  1  0  0  0  0  0  0  0  0
   18.2698   20.7377    9.1018 C   0  0  0  1  0  0  0  0  0  0  0  0
   19.9651   18.8286    6.5359 C   0  0  0  1  0  0  0  0  0  0  0  0
   19.0479   18.9355    7.5166 N   0  0  0  1  0  0  0  0  0  0  0  0
   18.3154   20.1893    7.7114 C   0  0  0  1  0  0  0  0  0  0  0  0
   20.1266   19.6961    5.6797 O   0  0  0  1  0  0  0  0  0  0  0  0
   23.8763   16.4147    6.5375 H   0  0  0  1  0  0  0  0  0  0  0  0
   20.3392   14.4191    6.5284 H   0  0  0  1  0  0  0  0  0  0  0  0
   17.7092   15.9650    8.4170 H   0  0  0  1  0  0  0  0  0  0  0  0
   18.0280   16.5966    6.8195 H   0  0  0  1  0  0  0  0  0  0  0  0
   16.7905   17.3242    7.8162 H   0  0  0  1  0  0  0  0  0  0  0  0
   19.6846   17.2632    8.5606 H   0  0  0  1  0  0  0  0  0  0  0  0
   18.4067   18.1716    9.3325 H   0  0  0  1  0  0  0  0  0  0  0  0
   17.5772   21.5523    9.1419 H   0  0  0  1  0  0  0  0  0  0  0  0
   19.2433   21.0835    9.3806 H   0  0  0  1  0  0  0  0  0  0  0  0
   17.9564   19.9697    9.7777 H   0  0  0  1  0  0  0  0  0  0  0  0
   18.7703   20.9296    7.0869 H   0  0  0  1  0  0  0  0  0  0  0  0
   17.3063   20.0264    7.3951 H   0  0  0  1  0  0  0  0  0  0  0  0
  1  2  2  0  0  0  0
  1  7  1  0  0  0  0
  1 11  1  0  0  0  0
  2  3  1  0  0  0  0
  2  6  1  0  0  0  0
  3  4  2  0  0  0  0
  3 15  1  0  0  0  0
  4  5  1  0  0  0  0
  5  7  2  0  0  0  0
  5 16  1  0  0  0  0
  8  9  1  0  0  0  0
  8 17  1  0  0  0  0
  8 18  1  0  0  0  0
  8 19  1  0  0  0  0
  9 12  1  0  0  0  0
  9 20  1  0  0  0  0
  9 21  1  0  0  0  0
 10 13  1  0  0  0  0
 10 22  1  0  0  0  0
 10 23  1  0  0  0  0
 10 24  1  0  0  0  0
 11 12  1  0  0  0  0
 11 14  2  0  0  0  0
 12 13  1  0  0  0  0
 13 25  1  0  0  0  0
 13 26  1  0  0  0  0
M  END
> <BCLConfClusterSize>
1

> <ConfClashScore>
0.00412257 

> <ConfOneFourInteractionScore>
-0.963536 

> <ConfScore>
0.46737 

> <ConfScorePBest>
1 

> <SampleByParts>
0 7 8 9 10 11 12 13 

$$$$



 15 15  0  0  0  0  0  0  0  0999 V2000
   20.7956   17.5852    6.5323 C   0  0  0  1  0  0  0  0  0  0  0  0
   22.1751   17.6315    6.5317 C   0  0  0  1  0  0  0  0  0  0  0  0
   22.8363   16.4178    6.5334 C   0  0  0  1  0  0  0  0  0  0  0  0
   22.1866   15.2418    6.5299 N   0  0  0  1  0  0  0  0  0  0  0  0
   20.8561   15.3215    6.5293 C   0  0  0  1  0  0  0  0  0  0  0  0
   23.1128   19.2725    6.5288 Br  0  0  0  1  0  0  0  0  0  0  0  0
   20.1131   16.4307    6.5297 N   0  0  0  1  0  0  0  0  0  0  0  0
   24.5734   16.2901    6.6567 S   0  0  0  1  0  0  0  0  0  0  0  0
   25.0685   15.5960    5.2335 N   0  0  0  1  0  0  0  0  0  0  0  0
   24.9051   15.4248    7.7458 O   0  0  0  1  0  0  0  0  0  0  0  0
   25.1541   17.5959    6.6053 O   0  0  0  1  0  0  0  0  0  0  0  0
   20.2652   18.4798    6.5349 H   0  0  0  1  0  0  0  0  0  0  0  0
   20.3392   14.4191    6.5284 H   0  0  0  1  0  0  0  0  0  0  0  0
   24.9668   14.6308    5.0976 H   0  0  0  1  0  0  0  0  0  0  0  0
   25.4628   16.1512    4.5286 H   0  0  0  1  0  0  0  0  0  0  0  0
  1  2  2  0  0  0  0
  1  7  1  0  0  0  0
  1 12  1  0  0  0  0
  2  3  1  0  0  0  0
  2  6  1  0  0  0  0
  3  4  2  0  0  0  0
  3  8  1  0  0  0  0
  4  5  1  0  0  0  0
  5  7  2  0  0  0  0
  5 13  1  0  0  0  0
  8  9  1  0  0  0  0
  8 10  2  0  0  0  0
  8 11  2  0  0  0  0
  9 14  1  0  0  0  0
  9 15  1  0  0  0  0
M  END
> <BCLConfClusterSize>
1

> <ConfClashScore>
0.0011594 

> <ConfOneFourInteractionScore>
-0.919805 

> <ConfScore>
0.707353 

> <ConfScorePBest>
1 

> <SampleByParts>
2 7 8 9 10 

$$$$



 18 18  0  0  0  0  0  0  0  0999 V2000
   20.7956   17.5852    6.5323 C   0  0  0  1  0  0  0  0  0  0  0  0
   22.1751   17.6315    6.5317 C   0  0  0  1  0  0  0  0  0  0  0  0
   22.8363   16.4178    6.5334 C   0  0  0  1  0  0  0  0  0  0  0  0
   22.1866   15.2418    6.5299 N   0  0  0  1  0  0  0  0  0  0  0  0
   20.8561   15.3215    6.5293 C   0  0  0  1  0  0  0  0  0  0  0  0
   23.1128   19.2725    6.5288 Br  0  0  0  1  0  0  0  0  0  0  0  0
   20.1131   16.4307    6.5297 N   0  0  0  1  0  0  0  0  0  0  0  0
   18.6773   13.8968    5.8667 S   0  0  0  1  0  0  0  0  0  0  0  0
   18.9173   13.6045    4.1446 C   0  0  0  1  0  0  0  0  0  0  0  0
   20.1555   14.1017    6.5281 N   0  0  0  1  0  0  0  0  0  0  0  0
   17.9807   15.1297    6.0142 O   0  0  0  1  0  0  0  0  0  0  0  0
   18.1216   12.7156    6.4403 O   0  0  0  1  0  0  0  0  0  0  0  0
   20.2652   18.4798    6.5349 H   0  0  0  1  0  0  0  0  0  0  0  0
   23.8763   16.4147    6.5375 H   0  0  0  1  0  0  0  0  0  0  0  0
   19.4214   14.4836    3.8013 H   0  0  0  1  0  0  0  0  0  0  0  0
   17.9789   13.4845    3.6447 H   0  0  0  1  0  0  0  0  0  0  0  0
   19.5198   12.7344    3.9868 H   0  0  0  1  0  0  0  0  0  0  0  0
   20.5813   13.3268    6.9507 H   0  0  0  1  0  0  0  0  0  0  0  0
  1  2  2  0  0  0  0
  1  7  1  0  0  0  0
  1 13  1  0  0  0  0
  2  3  1  0  0  0  0
  2  6  1  0  0  0  0
  3  4  2  0  0  0  0
  3 14  1  0  0  0  0
  4  5  1  0  0  0  0
  5  7  2  0  0  0  0
  5 10  1  0  0  0  0
  8  9  1  0  0  0  0
  8 10  1  0  0  0  0
  8 11  2  0  0  0  0
  8 12  2  0  0  0  0
  9 15  1  0  0  0  0
  9 16  1  0  0  0  0
  9 17  1  0  0  0  0
 10 18  1  0  0  0  0
M  END
> <BCLConfClusterSize>
1

> <ConfClashScore>
0 

> <ConfOneFourInteractionScore>
-0.985244 

> <ConfScore>
0.132642 

> <ConfScorePBest>
1 

> <SampleByParts>
4 7 8 9 10 11 

$$$$



 20 20  0  0  0  0  0  0  0  0999 V2000
   22.8231   16.4261    6.5389 C   0  0  0  1  0  0  0  0  0  0  0  0
   22.1666   17.6618    6.5330 C   0  0  0  1  0  0  0  0  0  0  0  0
   20.7962   17.6493    6.5322 C   0  0  0  1  0  0  0  0  0  0  0  0
   20.1614   16.4014    6.5306 C   0  0  0  1  0  0  0  0  0  0  0  0
   20.8292   15.2508    6.5211 N   0  0  0  1  0  0  0  0  0  0  0  0
   23.1330   19.2860    6.5265 Br  0  0  0  1  0  0  0  0  0  0  0  0
   22.1801   15.2620    6.5243 N   0  0  0  1  0  0  0  0  0  0  0  0
   26.8381   13.7665    6.9311 C   0  0  0  1  0  0  0  0  0  0  0  0
   24.3119   16.3952    6.5626 C   0  0  0  1  0  0  0  0  0  0  0  0
   24.8830   15.2784    7.0616 N   0  0  0  1  0  0  0  0  0  0  0  0
   26.3315   15.1808    7.1624 C   0  0  0  1  0  0  0  0  0  0  0  0
   24.9631   17.3398    6.1480 O   0  0  0  1  0  0  0  0  0  0  0  0
   20.2485   18.5334    6.5328 H   0  0  0  1  0  0  0  0  0  0  0  0
   19.1218   16.3726    6.5371 H   0  0  0  1  0  0  0  0  0  0  0  0
   26.8697   13.2416    7.8630 H   0  0  0  1  0  0  0  0  0  0  0  0
   27.8210   13.8044    6.5099 H   0  0  0  1  0  0  0  0  0  0  0  0
   26.1803   13.2580    6.2577 H   0  0  0  1  0  0  0  0  0  0  0  0
   24.3210   14.5317    7.3567 H   0  0  0  1  0  0  0  0  0  0  0  0
   26.7703   15.8262    6.4303 H   0  0  0  1  0  0  0  0  0  0  0  0
   26.6292   15.4960    8.1406 H   0  0  0  1  0  0  0  0  0  0  0  0
  1  2  2  0  0  0  0
  1  7  1  0  0  0  0
  1  9  1  0  0  0  0
  2  3  1  0  0  0  0
  2  6  1  0  0  0  0
  3  4  2  0  0  0  0
  3 13  1  0  0  0  0
  4  5  1  0  0  0  0
  4 14  1  0  0  0  0
  5  7  2  0  0  0  0
  8 11  1  0  0  0  0
  8 15  1  0  0  0  0
  8 16  1  0  0  0  0
  8 17  1  0  0  0  0
  9 10  1  0  0  0  0
  9 12  2  0  0  0  0
 10 11  1  0  0  0  0
 10 18  1  0  0  0  0
 11 19  1  0  0  0  0
 11 20  1  0  0  0  0
M  END
> <BCLConfClusterSize>
1

> <ConfClashScore>
0 

> <ConfOneFourInteractionScore>
-0.994082 

> <ConfScore>
0.329034 

> <ConfScorePBest>
1 

> <SampleByParts>
0 7 8 9 10 11 

$$$$



 14 14  0  0  0  0  0  0  0  0999 V2000
   22.8231   16.4261    6.5389 C   0  0  0  1  0  0  0  0  0  0  0  0
   22.1666   17.6618    6.5330 C   0  0  0  1  0  0  0  0  0  0  0  0
   20.7962   17.6493    6.5322 C   0  0  0  1  0  0  0  0  0  0  0  0
   20.1614   16.4014    6.5306 C   0  0  0  1  0  0  0  0  0  0  0  0
   20.8292   15.2508    6.5211 N   0  0  0  1  0  0  0  0  0  0  0  0
   23.1330   19.2860    6.5265 Br  0  0  0  1  0  0  0  0  0  0  0  0
   22.1801   15.2620    6.5243 N   0  0  0  1  0  0  0  0  0  0  0  0
   19.9798   18.7297    6.5328 O   0  0  0  1  0  0  0  0  0  0  0  0
   18.6683   18.5615    5.9721 C   0  0  0  1  0  0  0  0  0  0  0  0
   23.8629   16.4176    6.5555 H   0  0  0  1  0  0  0  0  0  0  0  0
   19.1218   16.3726    6.5371 H   0  0  0  1  0  0  0  0  0  0  0  0
   18.0276   19.3441    6.3213 H   0  0  0  1  0  0  0  0  0  0  0  0
   18.2709   17.6147    6.2728 H   0  0  0  1  0  0  0  0  0  0  0  0
   18.7294   18.6005    4.9046 H   0  0  0  1  0  0  0  0  0  0  0  0
  1  2  2  0  0  0  0
  1  7  1  0  0  0  0
  1 10  1  0  0  0  0
  2  3  1  0  0  0  0
  2  6  1  0  0  0  0
  3  4  2  0  0  0  0
  3  8  1  0  0  0  0
  4  5  1  0  0  0  0
  4 11  1  0  0  0  0
  5  7  2  0  0  0  0
  8  9  1  0  0  0  0
  9 12  1  0  0  0  0
  9 13  1  0  0  0  0
  9 14  1  0  0  0  0
M  END
> <BCLConfClusterSize>
1

> <ConfClashScore>
0.012887 

> <ConfOneFourInteractionScore>
-1 

> <ConfScore>
1.445 

> <ConfScorePBest>
1 

> <SampleByParts>
2 7 8 

$$$$



 26 26  0  0  0  0  0  0  0  0999 V2000
   22.8231   16.4261    6.5389 C   0  0  0  1  0  0  0  0  0  0  0  0
   22.1666   17.6618    6.5330 C   0  0  0  1  0  0  0  0  0  0  0  0
   20.7962   17.6493    6.5322 C   0  0  0  1  0  0  0  0  0  0  0  0
   20.1614   16.4014    6.5306 C   0  0  0  1  0  0  0  0  0  0  0  0
   20.8292   15.2508    6.5211 N   0  0  0  1  0  0  0  0  0  0  0  0
   23.1330   19.2860    6.5265 Br  0  0  0  1  0  0  0  0  0  0  0  0
   22.1801   15.2620    6.5243 N   0  0  0  1  0  0  0  0  0  0  0  0
   16.6279   14.7113    4.5973 C   0  0  0  1  0  0  0  0  0  0  0  0
   16.7617   14.8746    6.0911 C   0  0  0  1  0  0  0  0  0  0  0  0
   19.6248   13.1859    5.9329 C   0  0  0  1  0  0  0  0  0  0  0  0
   18.6825   16.2809    6.5395 C   0  0  0  1  0  0  0  0  0  0  0  0
   18.1426   15.0706    6.5100 N   0  0  0  1  0  0  0  0  0  0  0  0
   18.8644   13.9112    7.0154 C   0  0  0  1  0  0  0  0  0  0  0  0
   17.9745   17.2856    6.5737 O   0  0  0  1  0  0  0  0  0  0  0  0
   23.8629   16.4176    6.5555 H   0  0  0  1  0  0  0  0  0  0  0  0
   20.2485   18.5334    6.5328 H   0  0  0  1  0  0  0  0  0  0  0  0
   15.5935   14.6192    4.3393 H   0  0  0  1  0  0  0  0  0  0  0  0
   17.1524   13.8320    4.2865 H   0  0  0  1  0  0  0  0  0  0  0  0
   17.0428   15.5669    4.1066 H   0  0  0  1  0  0  0  0  0  0  0  0
   16.3803   13.9958    6.5676 H   0  0  0  1  0  0  0  0  0  0  0  0
   16.1871   15.7242    6.3959 H   0  0  0  1  0  0  0  0  0  0  0  0
   20.3073   13.8619    5.4616 H   0  0  0  1  0  0  0  0  0  0  0  0
   18.9367   12.8092    5.2052 H   0  0  0  1  0  0  0  0  0  0  0  0
   20.1697   12.3722    6.3641 H   0  0  0  1  0  0  0  0  0  0  0  0
   19.5581   14.2377    7.7617 H   0  0  0  1  0  0  0  0  0  0  0  0
   18.1613   13.2337    7.4533 H   0  0  0  1  0  0  0  0  0  0  0  0
  1  2  2  0  0  0  0
  1  7  1  0  0  0  0
  1 15  1  0  0  0  0
  2  3  1  0  0  0  0
  2  6  1  0  0  0  0
  3  4  2  0  0  0  0
  3 16  1  0  0  0  0
  4  5  1  0  0  0  0
  4 11  1  0  0  0  0
  5  7  2  0  0  0  0
  8  9  1  0  0  0  0
  8 17  1  0  0  0  0
  8 18  1  0  0  0  0
  8 19  1  0  0  0  0
  9 12  1  0  0  0  0
  9 20  1  0  0  0  0
  9 21  1  0  0  0  0
 10 13  1  0  0  0  0
 10 22  1  0  0  0  0
 10 23  1  0  0  0  0
 10 24  1  0  0  0  0
 11 12  1  0  0  0  0
 11 14  2  0  0  0  0
 12 13  1  0  0  0  0
 13 25  1  0  0  0  0
 13 26  1  0  0  0  0
M  END
> <BCLConfClusterSize>
1

> <ConfClashScore>
0.0392851 

> <ConfOneFourInteractionScore>
-0.989317 

> <ConfScore>
4.54286 

> <ConfScorePBest>
1 

> <SampleByParts>
3 7 8 9 10 11 12 13 

$$$$



 18 18  0  0  0  0  0  0  0  0999 V2000
   20.8336   17.6826    6.5338 N   0  0  0  1  0  0  0  0  0  0  0  0
   22.1726   17.6180    6.5317 C   0  0  0  1  0  0  0  0  0  0  0  0
   22.8736   16.4247    6.5319 C   0  0  0  1  0  0  0  0  0  0  0  0
   22.1657   15.2387    6.5298 C   0  0  0  1  0  0  0  0  0  0  0  0
   20.7841   15.2901    6.5274 C   0  0  0  1  0  0  0  0  0  0  0  0
   23.0390   19.2977    6.5287 Br  0  0  0  1  0  0  0  0  0  0  0  0
   20.1649   16.5254    6.5310 C   0  0  0  1  0  0  0  0  0  0  0  0
   24.3537   16.4944    6.5344 C   0  0  0  1  0  0  0  0  0  0  0  0
   25.0181   15.9821    7.5741 N   0  0  0  1  0  0  0  0  0  0  0  0
   26.4709   16.0069    7.6570 C   0  0  0  1  0  0  0  0  0  0  0  0
   24.9586   17.0165    5.5923 O   0  0  0  1  0  0  0  0  0  0  0  0
   22.6622   14.3249    6.5300 H   0  0  0  1  0  0  0  0  0  0  0  0
   20.2214   14.4155    6.5230 H   0  0  0  1  0  0  0  0  0  0  0  0
   19.1254   16.5562    6.5316 H   0  0  0  1  0  0  0  0  0  0  0  0
   24.5095   15.5754    8.3065 H   0  0  0  1  0  0  0  0  0  0  0  0
   26.8625   15.0603    7.3480 H   0  0  0  1  0  0  0  0  0  0  0  0
   26.7670   16.2028    8.6664 H   0  0  0  1  0  0  0  0  0  0  0  0
   26.8512   16.7759    7.0175 H   0  0  0  1  0  0  0  0  0  0  0  0
  1  2  2  0  0  0  0
  1  7  1  0  0  0  0
  2  3  1  0  0  0  0
  2  6  1  0  0  0  0
  3  4  2  0  0  0  0
  3  8  1  0  0  0  0
  4  5  1  0  0  0  0
  4 12  1  0  0  0  0
  5  7  2  0  0  0  0
  5 13  1  0  0  0  0
  7 14  1  0  0  0  0
  8  9  1  0  0  0  0
  8 11  2  0  0  0  0
  9 10  1  0  0  0  0
  9 15  1  0  0  0  0
 10 16  1  0  0  0  0
 10 17  1  0  0  0  0
 10 18  1  0  0  0  0
M  END
> <BCLConfClusterSize>
1

> <ConfClashScore>
0 

> <ConfOneFourInteractionScore>
-0.965347 

> <ConfScore>
0.085074 

> <ConfScorePBest>
1 

> <SampleByParts>
2 7 8 9 10 

$$$$



 12 12  0  0  0  0  0  0  0  0999 V2000
   20.8336   17.6826    6.5338 N   0  0  0  1  0  0  0  0  0  0  0  0
   22.1726   17.6180    6.5317 C   0  0  0  1  0  0  0  0  0  0  0  0
   22.8736   16.4247    6.5319 C   0  0  0  1  0  0  0  0  0  0  0  0
   22.1657   15.2387    6.5298 C   0  0  0  1  0  0  0  0  0  0  0  0
   20.7841   15.2901    6.5274 C   0  0  0  1  0  0  0  0  0  0  0  0
   23.0390   19.2977    6.5287 Br  0  0  0  1  0  0  0  0  0  0  0  0
   20.1649   16.5254    6.5310 C   0  0  0  1  0  0  0  0  0  0  0  0
   22.8033   13.9587    6.5300 C   0  0  0  1  0  0  0  0  0  0  0  0
   23.2791   12.9117    6.5301 N   0  0  0  1  0  0  0  0  0  0  0  0
   23.9136   16.4211    6.5336 H   0  0  0  1  0  0  0  0  0  0  0  0
   20.2214   14.4155    6.5230 H   0  0  0  1  0  0  0  0  0  0  0  0
   19.1254   16.5562    6.5316 H   0  0  0  1  0  0  0  0  0  0  0  0
  1  2  2  0  0  0  0
  1  7  1  0  0  0  0
  2  3  1  0  0  0  0
  2  6  1  0  0  0  0
  3  4  2  0  0  0  0
  3 10  1  0  0  0  0
  4  5  1  0  0  0  0
  4  8  1  0  0  0  0
  5  7  2  0  0  0  0
  5 11  1  0  0  0  0
  7 12  1  0  0  0  0
  8  9  3  0  0  0  0
M  END
> <BCLConfClusterSize>
1

> <ConfClashScore>
0 

> <ConfOneFourInteractionScore>
0 

> <ConfScore>
0 

> <ConfScorePBest>
1 

> <SampleByParts>
3 7 8 

$$$$



 17 17  0  0  0  0  0  0  0  0999 V2000
   20.8336   17.6826    6.5338 N   0  0  0  1  0  0  0  0  0  0  0  0
   22.1726   17.6180    6.5317 C   0  0  0  1  0  0  0  0  0  0  0  0
   22.8736   16.4247    6.5319 C   0  0  0  1  0  0  0  0  0  0  0  0
   22.1657   15.2387    6.5298 C   0  0  0  1  0  0  0  0  0  0  0  0
   20.7841   15.2901    6.5274 C   0  0  0  1  0  0  0  0  0  0  0  0
   23.0390   19.2977    6.5287 Br  0  0  0  1  0  0  0  0  0  0  0  0
   20.1649   16.5254    6.5310 C   0  0  0  1  0  0  0  0  0  0  0  0
   19.8312   13.8092    6.5199 S   0  0  0  1  0  0  0  0  0  0  0  0
   18.4632   14.1565    5.4248 C   0  0  0  1  0  0  0  0  0  0  0  0
   19.2984   13.6066    7.8314 O   0  0  0  1  0  0  0  0  0  0  0  0
   20.6159   12.7684    5.9318 O   0  0  0  1  0  0  0  0  0  0  0  0
   23.9136   16.4211    6.5336 H   0  0  0  1  0  0  0  0  0  0  0  0
   22.6622   14.3249    6.5300 H   0  0  0  1  0  0  0  0  0  0  0  0
   19.1254   16.5562    6.5316 H   0  0  0  1  0  0  0  0  0  0  0  0
   18.8321   14.3241    4.4345 H   0  0  0  1  0  0  0  0  0  0  0  0
   17.9469   15.0296    5.7653 H   0  0  0  1  0  0  0  0  0  0  0  0
   17.7913   13.3238    5.4187 H   0  0  0  1  0  0  0  0  0  0  0  0
  1  2  2  0  0  0  0
  1  7  1  0  0  0  0
  2  3  1  0  0  0  0
  2  6  1  0  0  0  0
  3  4  2  0  0  0  0
  3 12  1  0  0  0  0
  4  5  1  0  0  0  0
  4 13  1  0  0  0  0
  5  7  2  0  0  0  0
  5  8  1  0  0  0  0
  7 14  1  0  0  0  0
  8  9  1  0  0  0  0
  8 10  2  0  0  0  0
  8 11  2  0  0  0  0
  9 15  1  0  0  0  0
  9 16  1  0  0  0  0
  9 17  1  0  0  0  0
M  END
> <BCLConfClusterSize>
1

> <ConfClashScore>
0 

> <ConfOneFourInteractionScore>
-0.990355 

> <ConfScore>
-0.543025 

> <ConfScorePBest>
1 

> <SampleByParts>
4 7 8 9 10 

$$$$



 23 23  0  0  0  0  0  0  0  0999 V2000
   22.8511   16.4583    6.5283 C   0  0  0  1  0  0  0  0  0  0  0  0
   22.1730   17.6633    6.5304 C   0  0  0  1  0  0  0  0  0  0  0  0
   20.7919   17.6472    6.5314 C   0  0  0  1  0  0  0  0  0  0  0  0
   20.1406   16.4260    6.5307 C   0  0  0  1  0  0  0  0  0  0  0  0
   20.7852   15.2505    6.5331 N   0  0  0  1  0  0  0  0  0  0  0  0
   23.1175   19.3004    6.5317 Br  0  0  0  1  0  0  0  0  0  0  0  0
   22.1212   15.2849    6.5313 C   0  0  0  1  0  0  0  0  0  0  0  0
   26.4533   16.0905    7.8533 C   0  0  0  1  0  0  0  0  0  0  0  0
   27.0829   15.6945    9.1789 C   0  0  0  1  0  0  0  0  0  0  0  0
   24.9491   15.8757    7.8126 C   0  0  0  1  0  0  0  0  0  0  0  0
   24.3612   16.4244    6.5228 C   0  0  0  1  0  0  0  0  0  0  0  0
   20.2516   18.5359    6.5327 H   0  0  0  1  0  0  0  0  0  0  0  0
   19.1006   16.4199    6.5282 H   0  0  0  1  0  0  0  0  0  0  0  0
   22.6380   14.3824    6.5322 H   0  0  0  1  0  0  0  0  0  0  0  0
   26.9006   15.5055    7.0771 H   0  0  0  1  0  0  0  0  0  0  0  0
   26.6527   17.1272    7.6793 H   0  0  0  1  0  0  0  0  0  0  0  0
   26.9545   14.6438    9.3356 H   0  0  0  1  0  0  0  0  0  0  0  0
   26.6103   16.2337    9.9731 H   0  0  0  1  0  0  0  0  0  0  0  0
   28.1271   15.9272    9.1611 H   0  0  0  1  0  0  0  0  0  0  0  0
   24.5004   16.3777    8.6442 H   0  0  0  1  0  0  0  0  0  0  0  0
   24.7426   14.8276    7.8743 H   0  0  0  1  0  0  0  0  0  0  0  0
   24.7237   17.4210    6.3802 H   0  0  0  1  0  0  0  0  0  0  0  0
   24.6850   15.8070    5.7112 H   0  0  0  1  0  0  0  0  0  0  0  0
  1  2  2  0  0  0  0
  1  7  1  0  0  0  0
  1 11  1  0  0  0  0
  2  3  1  0  0  0  0
  2  6  1  0  0  0  0
  3  4  2  0  0  0  0
  3 12  1  0  0  0  0
  4  5  1  0  0  0  0
  4 13  1  0  0  0  0
  5  7  2  0  0  0  0
  7 14  1  0  0  0  0
  8  9  1  0  0  0  0
  8 10  1  0  0  0  0
  8 15  1  0  0  0  0
  8 16  1  0  0  0  0
  9 17  1  0  0  0  0
  9 18  1  0  0  0  0
  9 19  1  0  0  0  0
 10 11  1  0  0  0  0
 10 20  1  0  0  0  0
 10 21  1  0  0  0  0
 11 22  1  0  0  0  0
 11 23  1  0  0  0  0
M  END
> <BCLConfClusterSize>
1

> <ConfClashScore>
0 

> <ConfOneFourInteractionScore>
-1 

> <ConfScore>
-0.612625 

> <ConfScorePBest>
1 

> <SampleByParts>
0 7 8 9 10 

$$$$



 18 18  0  0  0  0  0  0  0  0999 V2000
   22.8511   16.4583    6.5283 C   0  0  0  1  0  0  0  0  0  0  0  0
   22.1730   17.6633    6.5304 C   0  0  0  1  0  0  0  0  0  0  0  0
   20.7919   17.6472    6.5314 C   0  0  0  1  0  0  0  0  0  0  0  0
   20.1406   16.4260    6.5307 C   0  0  0  1  0  0  0  0  0  0  0  0
   20.7852   15.2505    6.5331 N   0  0  0  1  0  0  0  0  0  0  0  0
   23.1175   19.3004    6.5317 Br  0  0  0  1  0  0  0  0  0  0  0  0
   22.1212   15.2849    6.5313 C   0  0  0  1  0  0  0  0  0  0  0  0
   19.9766   18.9006    6.5332 C   0  0  0  1  0  0  0  0  0  0  0  0
   19.0599   19.0137    7.4985 N   0  0  0  1  0  0  0  0  0  0  0  0
   18.2893   20.2317    7.6999 C   0  0  0  1  0  0  0  0  0  0  0  0
   20.1556   19.7679    5.6838 O   0  0  0  1  0  0  0  0  0  0  0  0
   23.8908   16.4355    6.5245 H   0  0  0  1  0  0  0  0  0  0  0  0
   19.1006   16.4199    6.5282 H   0  0  0  1  0  0  0  0  0  0  0  0
   22.6380   14.3824    6.5322 H   0  0  0  1  0  0  0  0  0  0  0  0
   18.9008   18.2499    8.0916 H   0  0  0  1  0  0  0  0  0  0  0  0
   17.6402   20.1086    8.5416 H   0  0  0  1  0  0  0  0  0  0  0  0
   17.7055   20.4327    6.8261 H   0  0  0  1  0  0  0  0  0  0  0  0
   18.9556   21.0492    7.8803 H   0  0  0  1  0  0  0  0  0  0  0  0
  1  2  2  0  0  0  0
  1  7  1  0  0  0  0
  1 12  1  0  0  0  0
  2  3  1  0  0  0  0
  2  6  1  0  0  0  0
  3  4  2  0  0  0  0
  3  8  1  0  0  0  0
  4  5  1  0  0  0  0
  4 13  1  0  0  0  0
  5  7  2  0  0  0  0
  7 14  1  0  0  0  0
  8  9  1  0  0  0  0
  8 11  2  0  0  0  0
  9 10  1  0  0  0  0
  9 15  1  0  0  0  0
 10 16  1  0  0  0  0
 10 17  1  0  0  0  0
 10 18  1  0  0  0  0
M  END
> <BCLConfClusterSize>
1

> <ConfClashScore>
0 

> <ConfOneFourInteractionScore>
-0.965347 

> <ConfScore>
0.0613263 

> <ConfScorePBest>
1 

> <SampleByParts>
2 7 8 9 10 

$$$$



 18 18  0  0  0  0  0  0  0  0999 V2000
   22.8511   16.4583    6.5283 C   0  0  0  1  0  0  0  0  0  0  0  0
   22.1730   17.6633    6.5304 C   0  0  0  1  0  0  0  0  0  0  0  0
   20.7919   17.6472    6.5314 C   0  0  0  1  0  0  0  0  0  0  0  0
   20.1406   16.4260    6.5307 C   0  0  0  1  0  0  0  0  0  0  0  0
   20.7852   15.2505    6.5331 N   0  0  0  1  0  0  0  0  0  0  0  0
   23.1175   19.3004    6.5317 Br  0  0  0  1  0  0  0  0  0  0  0  0
   22.1212   15.2849    6.5313 C   0  0  0  1  0  0  0  0  0  0  0  0
   18.4230   14.9407    4.1595 C   0  0  0  1  0  0  0  0  0  0  0  0
   18.3870   16.4542    6.5264 S   0  0  0  1  0  0  0  0  0  0  0  0
   18.0776   16.2956    4.7556 C   0  0  0  1  0  0  0  0  0  0  0  0
   23.8908   16.4355    6.5245 H   0  0  0  1  0  0  0  0  0  0  0  0
   20.2516   18.5359    6.5327 H   0  0  0  1  0  0  0  0  0  0  0  0
   22.6380   14.3824    6.5322 H   0  0  0  1  0  0  0  0  0  0  0  0
   18.1590   14.9289    3.1226 H   0  0  0  1  0  0  0  0  0  0  0  0
   17.8800   14.1759    4.6743 H   0  0  0  1  0  0  0  0  0  0  0  0
   19.4733   14.7636    4.2618 H   0  0  0  1  0  0  0  0  0  0  0  0
   17.0374   16.4779    4.5833 H   0  0  0  1  0  0  0  0  0  0  0  0
   18.6589   17.0380    4.2499 H   0  0  0  1  0  0  0  0  0  0  0  0
  1  2  2  0  0  0  0
  1  7  1  0  0  0  0
  1 11  1  0  0  0  0
  2  3  1  0  0  0  0
  2  6  1  0  0  0  0
  3  4  2  0  0  0  0
  3 12  1  0  0  0  0
  4  5  1  0  0  0  0
  4  9  1  0  0  0  0
  5  7  2  0  0  0  0
  7 13  1  0  0  0  0
  8 10  1  0  0  0  0
  8 14  1  0  0  0  0
  8 15  1  0  0  0  0
  8 16  1  0  0  0  0
  9 10  1  0  0  0  0
 10 17  1  0  0  0  0
 10 18  1  0  0  0  0
M  END
> <BCLConfClusterSize>
1

> <ConfClashScore>
0 

> <ConfOneFourInteractionScore>
-1 

> <ConfScore>
-0.337515 

> <ConfScorePBest>
1 

> <SampleByParts>
3 7 8 9 

$$$$
