58904
BBcorina  12272117083D 1   1.00000     0.00000 
CORINA 4.3.0 0026  30.10.2019
  9  9  0  0  0  0  0  0  0  0999 V2000
  -37.3977    5.6282  -44.6607 C   0  0  0  0  0  0  0  0  0  0  0  0
  -36.6556    5.9850  -45.5441 O   0  0  0  0  0  0  0  0  0  0  0  0
  -37.0417    4.4335  -43.8141 C   0  0  0  0  0  0  0  0  0  0  0  0
  -36.4461    4.8928  -42.4648 C   0  0  0  0  0  0  0  0  0  0  0  0
  -34.9300    4.8797  -42.7686 C   0  0  0  0  0  0  0  0  0  0  0  0
  -34.7867    3.8840  -43.8986 C   0  0  0  0  0  0  0  0  0  0  0  0
  -33.7431    3.3729  -44.2458 O   0  0  0  0  0  0  0  0  0  0  0  0
  -35.9833    3.6528  -44.4655 N   0  0  0  0  0  0  0  0  0  0  0  0
  -38.9037    6.5086  -44.3604 X   0  0  0  0  0  0  0  0  0  0  0  0
  1  2  2  0  0  0  0
  1  3  1  0  0  0  0
  1  9  1  0  0  0  0
  3  4  1  0  0  0  0
  3  8  1  0  0  0  0
  4  5  1  0  0  0  0
  5  6  1  0  0  0  0
  6  7  2  0  0  0  0
  6  8  1  0  0  0  0
M  END
> <Index>
67

> <PropertyFieldDistance>
nan

$$$$
58921
BBcorina  12272117083D 1   1.00000     0.00000 
CORINA 4.3.0 0026  30.10.2019
  9  9  0  0  0  0  0  0  0  0999 V2000
  -34.8790    0.7424  -43.7786 C   0  0  0  0  0  0  0  0  0  0  0  0
  -35.4023    0.1364  -44.6826 O   0  0  0  0  0  0  0  0  0  0  0  0
  -34.8995    2.2493  -43.7703 C   0  0  0  0  0  0  0  0  0  0  0  0
  -35.6395    2.7561  -45.0098 C   0  0  0  0  0  0  0  0  0  0  0  0
  -35.6602    4.2859  -45.0014 C   0  0  0  0  0  0  0  0  0  0  0  0
  -36.3763    4.7794  -43.7426 C   0  0  0  0  0  0  0  0  0  0  0  0
  -35.6363    4.2725  -42.5031 C   0  0  0  0  0  0  0  0  0  0  0  0
  -35.6156    2.7427  -42.5115 C   0  0  0  0  0  0  0  0  0  0  0  0
  -34.0880   -0.1392  -42.4633 X   0  0  0  0  0  0  0  0  0  0  0  0
  1  2  2  0  0  0  0
  1  3  1  0  0  0  0
  1  9  1  0  0  0  0
  3  4  1  0  0  0  0
  3  8  1  0  0  0  0
  4  5  1  0  0  0  0
  5  6  1  0  0  0  0
  6  7  1  0  0  0  0
  7  8  1  0  0  0  0
M  END
> <Index>
78

> <PropertyFieldDistance>
nan

$$$$
58943
BBcorina  12272117083D 1   1.00000     0.00000 
CORINA 4.3.0 0026  30.10.2019
 14 16  0  0  0  0  0  0  0  0999 V2000
  -33.2209    5.3611  -43.7484 C   0  0  0  0  0  0  0  0  0  0  0  0
  -34.2748    5.9506  -43.7402 O   0  0  0  0  0  0  0  0  0  0  0  0
  -33.2004    3.8542  -43.7567 C   0  0  0  0  0  0  0  0  0  0  0  0
  -34.6358    3.3247  -43.7458 C   0  0  0  0  0  0  0  0  0  0  0  0
  -34.6151    1.7948  -43.7542 C   0  0  0  0  0  0  0  0  0  0  0  0
  -36.0504    1.2652  -43.7434 C   0  0  0  0  0  0  0  0  0  0  0  0
  -36.7666    1.7587  -42.4846 C   0  0  0  0  0  0  0  0  0  0  0  0
  -36.7873    3.2885  -42.4762 C   0  0  0  0  0  0  0  0  0  0  0  0
  -37.5273    3.7953  -43.7157 C   0  0  0  0  0  0  0  0  0  0  0  0
  -36.8112    3.3019  -44.9745 C   0  0  0  0  0  0  0  0  0  0  0  0
  -36.7904    1.7721  -44.9829 C   0  0  0  0  0  0  0  0  0  0  0  0
  -35.3758    3.8315  -44.9853 C   0  0  0  0  0  0  0  0  0  0  0  0
  -35.3519    3.8181  -42.4870 C   0  0  0  0  0  0  0  0  0  0  0  0
  -31.7002    6.2668  -43.7581 X   0  0  0  0  0  0  0  0  0  0  0  0
  1  2  2  0  0  0  0
  1  3  1  0  0  0  0
  1 14  1  0  0  0  0
  3  4  1  0  0  0  0
  4  5  1  0  0  0  0
  4 12  1  0  0  0  0
  4 13  1  0  0  0  0
  5  6  1  0  0  0  0
  6  7  1  0  0  0  0
  6 11  1  0  0  0  0
  7  8  1  0  0  0  0
  8  9  1  0  0  0  0
  8 13  1  0  0  0  0
  9 10  1  0  0  0  0
 10 11  1  0  0  0  0
 10 12  1  0  0  0  0
M  END
> <Index>
94

> <PropertyFieldDistance>
nan

$$$$
58988
BBcorina  12272117083D 1   1.00000     0.00000 
CORINA 4.3.0 0026  30.10.2019
  8  8  0  0  0  0  0  0  0  0999 V2000
  -35.1518    5.0987  -42.9827 C   0  0  0  0  0  0  0  0  0  0  0  0
  -36.2057    5.6882  -42.9745 O   0  0  0  0  0  0  0  0  0  0  0  0
  -35.1313    3.5918  -42.9910 C   0  0  0  0  0  0  0  0  0  0  0  0
  -36.5697    3.0452  -42.9976 C   0  0  0  0  0  0  0  0  0  0  0  0
  -36.7215    2.2198  -44.2920 C   0  0  0  0  0  0  0  0  0  0  0  0
  -35.2716    1.8152  -44.6568 C   0  0  0  0  0  0  0  0  0  0  0  0
  -34.4581    3.0796  -44.2810 C   0  0  0  0  0  0  0  0  0  0  0  0
  -33.6311    6.0044  -42.9924 X   0  0  0  0  0  0  0  0  0  0  0  0
  1  2  2  0  0  0  0
  1  3  1  0  0  0  0
  1  8  1  0  0  0  0
  3  4  1  0  0  0  0
  3  7  1  0  0  0  0
  4  5  1  0  0  0  0
  5  6  1  0  0  0  0
  6  7  1  0  0  0  0
M  END
> <Index>
129

> <PropertyFieldDistance>
nan

$$$$
59270
BBcorina  12272117083D 1   1.00000     0.00000 
CORINA 4.3.0 0026  30.10.2019
 10 11  0  0  0  0  0  0  0  0999 V2000
  -34.5756    3.5600  -41.8563 C   0  0  0  0  0  0  0  0  0  0  0  0
  -34.8921    4.7143  -41.6954 O   0  0  0  0  0  0  0  0  0  0  0  0
  -35.4444    2.6490  -42.6848 C   0  0  0  0  0  0  0  0  0  0  0  0
  -34.6638    2.1220  -43.9138 C   0  0  0  0  0  0  0  0  0  0  0  0
  -35.4747    2.6669  -45.1325 C   0  0  0  0  0  0  0  0  0  0  0  0
  -36.9401    2.5479  -44.5744 C   0  0  0  0  0  0  0  0  0  0  0  0
  -36.6330    3.4454  -43.3202 C   0  0  0  0  0  0  0  0  0  0  0  0
  -35.9559    4.6357  -44.0106 C   0  0  0  0  0  0  0  0  0  0  0  0
  -35.2885    4.1871  -45.0548 C   0  0  0  0  0  0  0  0  0  0  0  0
  -33.0915    2.9382  -41.1190 X   0  0  0  0  0  0  0  0  0  0  0  0
  1  2  2  0  0  0  0
  1  3  1  0  0  0  0
  1 10  1  0  0  0  0
  3  4  1  0  0  0  0
  3  7  1  0  0  0  0
  4  5  1  0  0  0  0
  5  6  1  0  0  0  0
  5  9  1  0  0  0  0
  6  7  1  0  0  0  0
  7  8  1  0  0  0  0
  8  9  2  0  0  0  0
M  END
> <Index>
339

> <PropertyFieldDistance>
nan

$$$$
59371
BBcorina  12272117083D 1   1.00000     0.00000 
CORINA 4.3.0 0026  30.10.2019
 15 17  0  0  0  0  0  0  0  0999 V2000
  -35.8781    0.8409  -40.9174 Br  0  0  0  0  0  0  0  0  0  0  0  0
  -36.0052    1.9784  -42.5159 C   0  0  0  0  0  0  0  0  0  0  0  0
  -37.3405    2.7253  -42.5055 C   0  0  0  0  0  0  0  0  0  0  0  0
  -37.4394    3.6105  -43.7495 C   0  0  0  0  0  0  0  0  0  0  0  0
  -37.3523    2.7389  -45.0039 C   0  0  0  0  0  0  0  0  0  0  0  0
  -36.0171    1.9920  -45.0143 C   0  0  0  0  0  0  0  0  0  0  0  0
  -35.9182    1.1068  -43.7703 C   0  0  0  0  0  0  0  0  0  0  0  0
  -34.8559    2.9883  -42.5159 C   0  0  0  0  0  0  0  0  0  0  0  0
  -34.9548    3.8735  -43.7598 C   0  0  0  0  0  0  0  0  0  0  0  0
  -33.8055    4.8835  -43.7598 C   0  0  0  0  0  0  0  0  0  0  0  0
  -32.4903    4.1478  -43.7700 C   0  0  0  0  0  0  0  0  0  0  0  0
  -32.4739    2.9403  -43.7767 O   0  0  0  0  0  0  0  0  0  0  0  0
  -36.2901    4.6205  -43.7495 C   0  0  0  0  0  0  0  0  0  0  0  0
  -34.8678    3.0019  -45.0143 C   0  0  0  0  0  0  0  0  0  0  0  0
  -30.9696    5.0536  -43.7797 X   0  0  0  0  0  0  0  0  0  0  0  0
  1  2  1  0  0  0  0
  2  3  1  0  0  0  0
  2  7  1  0  0  0  0
  2  8  1  0  0  0  0
  3  4  1  0  0  0  0
  4  5  1  0  0  0  0
  4 13  1  0  0  0  0
  5  6  1  0  0  0  0
  6  7  1  0  0  0  0
  6 14  1  0  0  0  0
  8  9  1  0  0  0  0
  9 10  1  0  0  0  0
  9 13  1  0  0  0  0
  9 14  1  0  0  0  0
 10 11  1  0  0  0  0
 11 12  2  0  0  0  0
 11 15  1  0  0  0  0
M  END
> <Index>
415

> <PropertyFieldDistance>
nan

$$$$
294304
BBcorina  12272117083D 1   1.00000     0.00000 
CORINA 4.3.0 0026  30.10.2019
  9  9  0  0  0  0  0  0  0  0999 V2000
  -36.4199    2.1663  -44.7005 C   0  0  0  0  0  0  0  0  0  0  0  0
  -36.0203    3.4940  -44.2273 N   0  0  0  0  0  0  0  0  0  0  0  0
  -36.8604    4.4873  -43.8714 C   0  0  0  0  0  0  0  0  0  0  0  0
  -36.1333    5.5661  -43.4876 C   0  0  0  0  0  0  0  0  0  0  0  0
  -34.7819    5.2375  -43.6071 C   0  0  0  0  0  0  0  0  0  0  0  0
  -34.7233    3.9348  -44.0721 C   0  0  0  0  0  0  0  0  0  0  0  0
  -33.5497    3.1936  -44.3392 C   0  0  0  0  0  0  0  0  0  0  0  0
  -32.4628    3.7306  -44.2673 O   0  0  0  0  0  0  0  0  0  0  0  0
  -33.6643    1.4829  -44.7786 X   0  0  0  0  0  0  0  0  0  0  0  0
  1  2  1  0  0  0  0
  2  3  1  0  0  0  0
  2  6  1  0  0  0  0
  3  4  2  0  0  0  0
  4  5  1  0  0  0  0
  5  6  2  0  0  0  0
  6  7  1  0  0  0  0
  7  8  2  0  0  0  0
  7  9  1  0  0  0  0
M  END
> <Index>
663

> <PropertyFieldDistance>
nan

$$$$
59941
BBcorina  12272117083D 1   1.00000     0.00000 
CORINA 4.3.0 0026  30.10.2019
 13 13  0  0  0  0  0  0  0  0999 V2000
  -35.2676   -0.6399  -46.6644 C   0  0  0  0  0  0  0  0  0  0  0  0
  -34.1385   -0.2522  -46.8463 O   0  0  0  0  0  0  0  0  0  0  0  0
  -36.2579    0.2366  -45.9419 C   0  0  0  0  0  0  0  0  0  0  0  0
  -35.5829    1.5523  -45.5490 C   0  0  0  0  0  0  0  0  0  0  0  0
  -36.5733    2.4288  -44.8265 C   0  0  0  0  0  0  0  0  0  0  0  0
  -37.7073    2.0395  -44.6437 O   0  0  0  0  0  0  0  0  0  0  0  0
  -36.1972    3.6430  -44.3784 N   0  0  0  0  0  0  0  0  0  0  0  0
  -37.1447    4.5140  -43.6650 C   0  0  0  0  0  0  0  0  0  0  0  0
  -36.4835    4.9852  -42.3648 C   0  0  0  0  0  0  0  0  0  0  0  0
  -35.2046    5.5494  -42.6646 O   0  0  0  0  0  0  0  0  0  0  0  0
  -34.2785    4.6263  -43.2425 C   0  0  0  0  0  0  0  0  0  0  0  0
  -34.8253    4.1343  -44.5828 C   0  0  0  0  0  0  0  0  0  0  0  0
  -35.7594   -2.2375  -47.2463 X   0  0  0  0  0  0  0  0  0  0  0  0
  1  2  2  0  0  0  0
  1  3  1  0  0  0  0
  1 13  1  0  0  0  0
  3  4  1  0  0  0  0
  4  5  1  0  0  0  0
  5  6  2  0  0  0  0
  5  7  1  0  0  0  0
  7  8  1  0  0  0  0
  7 12  1  0  0  0  0
  8  9  1  0  0  0  0
  9 10  1  0  0  0  0
 10 11  1  0  0  0  0
 11 12  1  0  0  0  0
M  END
> <Index>
776

> <PropertyFieldDistance>
nan

$$$$
59992
BBcorina  12272117083D 1   1.00000     0.00000 
CORINA 4.3.0 0026  30.10.2019
 10 10  0  0  0  0  0  0  0  0999 V2000
  -32.7173    2.8262  -42.7624 C   0  0  0  0  0  0  0  0  0  0  0  0
  -33.2641    2.0566  -42.0094 O   0  0  0  0  0  0  0  0  0  0  0  0
  -33.4817    3.4231  -43.9158 C   0  0  0  0  0  0  0  0  0  0  0  0
  -34.9171    2.8935  -43.9050 C   0  0  0  0  0  0  0  0  0  0  0  0
  -35.6571    3.4004  -45.1445 C   0  0  0  0  0  0  0  0  0  0  0  0
  -37.0925    2.8708  -45.1337 C   0  0  0  0  0  0  0  0  0  0  0  0
  -37.8086    3.3642  -43.8749 C   0  0  0  0  0  0  0  0  0  0  0  0
  -37.0686    2.8574  -42.6353 C   0  0  0  0  0  0  0  0  0  0  0  0
  -35.6332    3.3869  -42.6462 C   0  0  0  0  0  0  0  0  0  0  0  0
  -31.0180    3.2530  -42.5114 X   0  0  0  0  0  0  0  0  0  0  0  0
  1  2  2  0  0  0  0
  1  3  1  0  0  0  0
  1 10  1  0  0  0  0
  3  4  1  0  0  0  0
  4  5  1  0  0  0  0
  4  9  1  0  0  0  0
  5  6  1  0  0  0  0
  6  7  1  0  0  0  0
  7  8  1  0  0  0  0
  8  9  1  0  0  0  0
M  END
> <Index>
816

> <PropertyFieldDistance>
nan

$$$$
14644192
BBcorina  12272117083D 1   1.00000     0.00000 
CORINA 4.3.0 0026  30.10.2019
 14 16  0  0  0  0  0  0  0  0999 V2000
  -32.8932    4.3684  -43.7424 O   0  0  0  0  0  0  0  0  0  0  0  0
  -34.2338    3.8738  -43.7322 C   0  0  0  0  0  0  0  0  0  0  0  0
  -34.9500    4.3672  -42.4734 C   0  0  0  0  0  0  0  0  0  0  0  0
  -36.3853    3.8376  -42.4626 C   0  0  0  0  0  0  0  0  0  0  0  0
  -37.1253    4.3445  -43.7021 C   0  0  0  0  0  0  0  0  0  0  0  0
  -36.4092    3.8510  -44.9609 C   0  0  0  0  0  0  0  0  0  0  0  0
  -34.9738    4.3806  -44.9718 C   0  0  0  0  0  0  0  0  0  0  0  0
  -34.2131    2.3440  -43.7407 C   0  0  0  0  0  0  0  0  0  0  0  0
  -35.6485    1.8144  -43.7298 C   0  0  0  0  0  0  0  0  0  0  0  0
  -36.3646    2.3078  -42.4710 C   0  0  0  0  0  0  0  0  0  0  0  0
  -36.3885    2.3212  -44.9693 C   0  0  0  0  0  0  0  0  0  0  0  0
  -35.6280    0.3075  -43.7381 C   0  0  0  0  0  0  0  0  0  0  0  0
  -36.1340   -0.3082  -42.8308 O   0  0  0  0  0  0  0  0  0  0  0  0
  -34.8624   -0.5598  -45.0776 X   0  0  0  0  0  0  0  0  0  0  0  0
  1  2  1  0  0  0  0
  2  3  1  0  0  0  0
  2  7  1  0  0  0  0
  2  8  1  0  0  0  0
  3  4  1  0  0  0  0
  4  5  1  0  0  0  0
  4 10  1  0  0  0  0
  5  6  1  0  0  0  0
  6  7  1  0  0  0  0
  6 11  1  0  0  0  0
  8  9  1  0  0  0  0
  9 10  1  0  0  0  0
  9 11  1  0  0  0  0
  9 12  1  0  0  0  0
 12 13  2  0  0  0  0
 12 14  1  0  0  0  0
M  END
> <Index>
855

> <PropertyFieldDistance>
nan

$$$$
60074
BBcorina  12272117083D 1   1.00000     0.00000 
CORINA 4.3.0 0026  30.10.2019
  8  8  0  0  0  0  0  0  0  0999 V2000
  -33.7027    2.4016  -42.9307 C   0  0  0  0  0  0  0  0  0  0  0  0
  -33.6863    1.1941  -42.9374 O   0  0  0  0  0  0  0  0  0  0  0  0
  -35.0179    3.1373  -42.9205 C   0  0  0  0  0  0  0  0  0  0  0  0
  -35.1859    3.9286  -44.2321 C   0  0  0  0  0  0  0  0  0  0  0  0
  -36.4936    3.3723  -44.8461 C   0  0  0  0  0  0  0  0  0  0  0  0
  -37.1950    2.7535  -43.6102 C   0  0  0  0  0  0  0  0  0  0  0  0
  -36.1029    2.1977  -42.8428 O   0  0  0  0  0  0  0  0  0  0  0  0
  -32.1820    3.3074  -42.9404 X   0  0  0  0  0  0  0  0  0  0  0  0
  1  2  2  0  0  0  0
  1  3  1  0  0  0  0
  1  8  1  0  0  0  0
  3  4  1  0  0  0  0
  3  7  1  0  0  0  0
  4  5  1  0  0  0  0
  5  6  1  0  0  0  0
  6  7  1  0  0  0  0
M  END
> <Index>
859

> <PropertyFieldDistance>
nan

$$$$
60238
BBcorina  12272117083D 1   1.00000     0.00000 
CORINA 4.3.0 0026  30.10.2019
 18 19  0  0  0  0  0  0  0  0999 V2000
  -34.9142    6.5570  -41.4960 C   0  0  0  0  0  0  0  0  0  0  0  0
  -33.8604    6.2857  -40.9722 O   0  0  0  0  0  0  0  0  0  0  0  0
  -35.3392    5.8384  -42.7506 C   0  0  0  0  0  0  0  0  0  0  0  0
  -36.6607    5.1092  -42.4977 C   0  0  0  0  0  0  0  0  0  0  0  0
  -37.1069    4.4083  -43.7847 C   0  0  0  0  0  0  0  0  0  0  0  0
  -36.0192    3.5398  -44.2552 N   0  0  0  0  0  0  0  0  0  0  0  0
  -34.6821    4.1206  -44.4410 C   0  0  0  0  0  0  0  0  0  0  0  0
  -34.2630    4.8248  -43.1467 C   0  0  0  0  0  0  0  0  0  0  0  0
  -36.2428    2.2349  -44.5078 C   0  0  0  0  0  0  0  0  0  0  0  0
  -37.3264    1.7440  -44.2565 O   0  0  0  0  0  0  0  0  0  0  0  0
  -35.2652    1.4743  -45.0391 N   0  0  0  0  0  0  0  0  0  0  0  0
  -35.5301    0.1499  -45.4053 C   0  0  0  0  0  0  0  0  0  0  0  0
  -36.7749   -0.1956  -45.9146 C   0  0  0  0  0  0  0  0  0  0  0  0
  -37.0330   -1.5034  -46.2755 C   0  0  0  0  0  0  0  0  0  0  0  0
  -36.0535   -2.4685  -46.1302 C   0  0  0  0  0  0  0  0  0  0  0  0
  -34.8129   -2.1278  -45.6233 C   0  0  0  0  0  0  0  0  0  0  0  0
  -34.5467   -0.8206  -45.2655 C   0  0  0  0  0  0  0  0  0  0  0  0
  -35.9596    7.7987  -40.7901 X   0  0  0  0  0  0  0  0  0  0  0  0
  1  2  2  0  0  0  0
  1  3  1  0  0  0  0
  1 18  1  0  0  0  0
  3  4  1  0  0  0  0
  3  8  1  0  0  0  0
  4  5  1  0  0  0  0
  5  6  1  0  0  0  0
  6  7  1  0  0  0  0
  6  9  1  0  0  0  0
  7  8  1  0  0  0  0
  9 10  2  0  0  0  0
  9 11  1  0  0  0  0
 11 12  1  0  0  0  0
 12 13  2  0  0  0  0
 12 17  1  0  0  0  0
 13 14  1  0  0  0  0
 14 15  2  0  0  0  0
 15 16  1  0  0  0  0
 16 17  2  0  0  0  0
M  END
> <Index>
996

> <PropertyFieldDistance>
nan

$$$$
338064
BBcorina  12272117083D 1   1.00000     0.00000 
CORINA 4.3.0 0026  30.10.2019
 14 14  0  0  0  0  0  0  0  0999 V2000
  -35.5481   -2.2602  -47.2618 C   0  0  0  0  0  0  0  0  0  0  0  0
  -36.6894   -2.5795  -47.0297 O   0  0  0  0  0  0  0  0  0  0  0  0
  -35.0386   -0.9119  -46.8219 C   0  0  0  0  0  0  0  0  0  0  0  0
  -36.3666   -0.0097  -45.9776 S   0  0  0  0  0  0  0  0  0  0  0  0
  -35.5741    1.5597  -45.5313 C   0  0  0  0  0  0  0  0  0  0  0  0
  -36.5655    2.4358  -44.8097 C   0  0  0  0  0  0  0  0  0  0  0  0
  -37.6955    2.0404  -44.6157 O   0  0  0  0  0  0  0  0  0  0  0  0
  -36.1965    3.6588  -44.3801 N   0  0  0  0  0  0  0  0  0  0  0  0
  -37.1517    4.5245  -43.6752 C   0  0  0  0  0  0  0  0  0  0  0  0
  -36.5315    4.9622  -42.3445 C   0  0  0  0  0  0  0  0  0  0  0  0
  -35.1715    5.6120  -42.6094 C   0  0  0  0  0  0  0  0  0  0  0  0
  -34.2368    4.5935  -43.2661 C   0  0  0  0  0  0  0  0  0  0  0  0
  -34.8294    4.1493  -44.6022 C   0  0  0  0  0  0  0  0  0  0  0  0
  -34.4738   -3.3758  -48.1186 X   0  0  0  0  0  0  0  0  0  0  0  0
  1  2  2  0  0  0  0
  1  3  1  0  0  0  0
  1 14  1  0  0  0  0
  3  4  1  0  0  0  0
  4  5  1  0  0  0  0
  5  6  1  0  0  0  0
  6  7  2  0  0  0  0
  6  8  1  0  0  0  0
  8  9  1  0  0  0  0
  8 13  1  0  0  0  0
  9 10  1  0  0  0  0
 10 11  1  0  0  0  0
 11 12  1  0  0  0  0
 12 13  1  0  0  0  0
M  END
> <Index>
1074

> <PropertyFieldDistance>
nan

$$$$
60343
BBcorina  12272117083D 1   1.00000     0.00000 
CORINA 4.3.0 0026  30.10.2019
 14 14  0  0  0  0  0  0  0  0999 V2000
  -35.5766   -2.2452  -47.3294 C   0  0  0  0  0  0  0  0  0  0  0  0
  -36.7214   -2.5588  -47.1075 O   0  0  0  0  0  0  0  0  0  0  0  0
  -35.0595   -0.9062  -46.8699 C   0  0  0  0  0  0  0  0  0  0  0  0
  -36.3855   -0.0047  -46.0217 S   0  0  0  0  0  0  0  0  0  0  0  0
  -35.5838    1.5531  -45.5515 C   0  0  0  0  0  0  0  0  0  0  0  0
  -36.5727    2.4275  -44.8245 C   0  0  0  0  0  0  0  0  0  0  0  0
  -37.7066    2.0381  -44.6416 O   0  0  0  0  0  0  0  0  0  0  0  0
  -36.1970    3.6423  -44.3776 N   0  0  0  0  0  0  0  0  0  0  0  0
  -37.1447    4.5138  -43.6652 C   0  0  0  0  0  0  0  0  0  0  0  0
  -36.4837    4.9863  -42.3653 C   0  0  0  0  0  0  0  0  0  0  0  0
  -35.2049    5.5506  -42.6656 O   0  0  0  0  0  0  0  0  0  0  0  0
  -34.2786    4.6270  -43.2425 C   0  0  0  0  0  0  0  0  0  0  0  0
  -34.8251    4.1337  -44.5824 C   0  0  0  0  0  0  0  0  0  0  0  0
  -34.5058   -3.3580  -48.1942 X   0  0  0  0  0  0  0  0  0  0  0  0
  1  2  2  0  0  0  0
  1  3  1  0  0  0  0
  1 14  1  0  0  0  0
  3  4  1  0  0  0  0
  4  5  1  0  0  0  0
  5  6  1  0  0  0  0
  6  7  2  0  0  0  0
  6  8  1  0  0  0  0
  8  9  1  0  0  0  0
  8 13  1  0  0  0  0
  9 10  1  0  0  0  0
 10 11  1  0  0  0  0
 11 12  1  0  0  0  0
 12 13  1  0  0  0  0
M  END
> <Index>
1075

> <PropertyFieldDistance>
nan

$$$$
60593
BBcorina  12272117083D 1   1.00000     0.00000 
CORINA 4.3.0 0026  30.10.2019
 12 12  0  0  0  0  0  0  0  0999 V2000
  -36.4058    1.4348  -44.7168 C   0  0  0  0  0  0  0  0  0  0  0  0
  -36.2153    1.4008  -43.5249 O   0  0  0  0  0  0  0  0  0  0  0  0
  -36.2468    2.7311  -45.4686 C   0  0  0  0  0  0  0  0  0  0  0  0
  -35.8594    3.7923  -44.5358 N   0  0  0  0  0  0  0  0  0  0  0  0
  -36.8978    4.5917  -43.8656 C   0  0  0  0  0  0  0  0  0  0  0  0
  -36.9507    4.1882  -42.3909 C   0  0  0  0  0  0  0  0  0  0  0  0
  -35.9438    4.9802  -41.5768 C   0  0  0  0  0  0  0  0  0  0  0  0
  -34.4981    4.6608  -41.9117 C   0  0  0  0  0  0  0  0  0  0  0  0
  -34.1569    5.1178  -43.3320 C   0  0  0  0  0  0  0  0  0  0  0  0
  -34.5681    4.0278  -44.2993 C   0  0  0  0  0  0  0  0  0  0  0  0
  -33.7204    3.3699  -44.8644 O   0  0  0  0  0  0  0  0  0  0  0  0
  -36.8719   -0.0379  -45.5811 X   0  0  0  0  0  0  0  0  0  0  0  0
  1  2  2  0  0  0  0
  1  3  1  0  0  0  0
  1 12  1  0  0  0  0
  3  4  1  0  0  0  0
  4  5  1  0  0  0  0
  4 10  1  0  0  0  0
  5  6  1  0  0  0  0
  6  7  1  0  0  0  0
  7  8  1  0  0  0  0
  8  9  1  0  0  0  0
  9 10  1  0  0  0  0
 10 11  2  0  0  0  0
M  END
> <Index>
1253

> <PropertyFieldDistance>
nan

$$$$
130499
BBcorina  12272117083D 1   1.00000     0.00000 
CORINA 4.3.0 0026  30.10.2019
 10 10  0  0  0  0  0  0  0  0999 V2000
  -36.2586    2.0544  -46.1449 C   0  0  0  0  0  0  0  0  0  0  0  0
  -36.1499    3.1250  -46.6928 O   0  0  0  0  0  0  0  0  0  0  0  0
  -36.1935    1.9671  -44.6418 C   0  0  0  0  0  0  0  0  0  0  0  0
  -35.9944    3.3068  -44.0831 N   0  0  0  0  0  0  0  0  0  0  0  0
  -37.0823    4.2170  -43.7064 C   0  0  0  0  0  0  0  0  0  0  0  0
  -36.4354    5.2782  -42.7890 C   0  0  0  0  0  0  0  0  0  0  0  0
  -34.9610    5.2436  -43.2616 C   0  0  0  0  0  0  0  0  0  0  0  0
  -34.7918    3.8599  -43.8491 C   0  0  0  0  0  0  0  0  0  0  0  0
  -33.7261    3.3273  -44.0764 O   0  0  0  0  0  0  0  0  0  0  0  0
  -36.4944    0.5876  -47.1071 X   0  0  0  0  0  0  0  0  0  0  0  0
  1  2  2  0  0  0  0
  1  3  1  0  0  0  0
  1 10  1  0  0  0  0
  3  4  1  0  0  0  0
  4  5  1  0  0  0  0
  4  8  1  0  0  0  0
  5  6  1  0  0  0  0
  6  7  1  0  0  0  0
  7  8  1  0  0  0  0
  8  9  2  0  0  0  0
M  END
> <Index>
1280

> <PropertyFieldDistance>
nan

$$$$
138573
BBcorina  12272117083D 1   1.00000     0.00000 
CORINA 4.3.0 0026  30.10.2019
  9  9  0  0  0  0  0  0  0  0999 V2000
  -33.2379    3.4344  -43.6912 C   0  0  0  0  0  0  0  0  0  0  0  0
  -32.8632    4.1400  -44.5968 O   0  0  0  0  0  0  0  0  0  0  0  0
  -34.6502    2.9086  -43.6806 C   0  0  0  0  0  0  0  0  0  0  0  0
  -35.4005    3.4209  -44.9165 C   0  0  0  0  0  0  0  0  0  0  0  0
  -36.7637    2.7283  -44.9768 C   0  0  0  0  0  0  0  0  0  0  0  0
  -37.4501    2.8217  -43.6456 C   0  0  0  0  0  0  0  0  0  0  0  0
  -36.8474    3.1123  -42.5375 C   0  0  0  0  0  0  0  0  0  0  0  0
  -35.3749    3.4063  -42.4281 C   0  0  0  0  0  0  0  0  0  0  0  0
  -32.1285    3.0178  -42.3765 X   0  0  0  0  0  0  0  0  0  0  0  0
  1  2  2  0  0  0  0
  1  3  1  0  0  0  0
  1  9  1  0  0  0  0
  3  4  1  0  0  0  0
  3  8  1  0  0  0  0
  4  5  1  0  0  0  0
  5  6  1  0  0  0  0
  6  7  2  0  0  0  0
  7  8  1  0  0  0  0
M  END
> <Index>
1388

> <PropertyFieldDistance>
nan

$$$$
60823
BBcorina  12272117083D 1   1.00000     0.00000 
CORINA 4.3.0 0026  30.10.2019
 11 11  0  0  0  0  0  0  0  0999 V2000
  -36.3169    2.1642  -46.1386 C   0  0  0  0  0  0  0  0  0  0  0  0
  -36.2681    3.2684  -46.6251 O   0  0  0  0  0  0  0  0  0  0  0  0
  -36.1753    1.9905  -44.6483 C   0  0  0  0  0  0  0  0  0  0  0  0
  -35.9902    3.3007  -44.0194 N   0  0  0  0  0  0  0  0  0  0  0  0
  -37.0136    4.0496  -43.5907 C   0  0  0  0  0  0  0  0  0  0  0  0
  -38.1852    3.7475  -43.6670 O   0  0  0  0  0  0  0  0  0  0  0  0
  -36.4765    5.3333  -42.9963 C   0  0  0  0  0  0  0  0  0  0  0  0
  -34.9490    5.1948  -43.1575 C   0  0  0  0  0  0  0  0  0  0  0  0
  -34.7833    3.8450  -43.8210 C   0  0  0  0  0  0  0  0  0  0  0  0
  -33.7255    3.3380  -44.1268 O   0  0  0  0  0  0  0  0  0  0  0  0
  -36.5546    0.7497  -47.1758 X   0  0  0  0  0  0  0  0  0  0  0  0
  1  2  2  0  0  0  0
  1  3  1  0  0  0  0
  1 11  1  0  0  0  0
  3  4  1  0  0  0  0
  4  5  1  0  0  0  0
  4  9  1  0  0  0  0
  5  6  2  0  0  0  0
  5  7  1  0  0  0  0
  7  8  1  0  0  0  0
  8  9  1  0  0  0  0
  9 10  2  0  0  0  0
M  END
> <Index>
1436

> <PropertyFieldDistance>
nan

$$$$
60826
BBcorina  12272117083D 1   1.00000     0.00000 
CORINA 4.3.0 0026  30.10.2019
 12 12  0  0  0  0  0  0  0  0999 V2000
  -35.2649    1.4741  -45.0383 N   0  0  0  0  0  0  0  0  0  0  0  0
  -36.2428    2.2350  -44.5078 C   0  0  0  0  0  0  0  0  0  0  0  0
  -37.3265    1.7442  -44.2570 O   0  0  0  0  0  0  0  0  0  0  0  0
  -36.0191    3.5398  -44.2552 N   0  0  0  0  0  0  0  0  0  0  0  0
  -37.1070    4.4083  -43.7847 C   0  0  0  0  0  0  0  0  0  0  0  0
  -36.6607    5.1092  -42.4978 C   0  0  0  0  0  0  0  0  0  0  0  0
  -35.3392    5.8384  -42.7506 C   0  0  0  0  0  0  0  0  0  0  0  0
  -34.2630    4.8248  -43.1466 C   0  0  0  0  0  0  0  0  0  0  0  0
  -34.6821    4.1206  -44.4410 C   0  0  0  0  0  0  0  0  0  0  0  0
  -34.9141    6.5570  -41.4960 C   0  0  0  0  0  0  0  0  0  0  0  0
  -33.8604    6.2857  -40.9723 O   0  0  0  0  0  0  0  0  0  0  0  0
  -35.9595    7.7987  -40.7901 X   0  0  0  0  0  0  0  0  0  0  0  0
  1  2  1  0  0  0  0
  2  3  2  0  0  0  0
  2  4  1  0  0  0  0
  4  5  1  0  0  0  0
  4  9  1  0  0  0  0
  5  6  1  0  0  0  0
  6  7  1  0  0  0  0
  7  8  1  0  0  0  0
  7 10  1  0  0  0  0
  8  9  1  0  0  0  0
 10 11  2  0  0  0  0
 10 12  1  0  0  0  0
M  END
> <Index>
1439

> <PropertyFieldDistance>
nan

$$$$
60827
BBcorina  12272117083D 1   1.00000     0.00000 
CORINA 4.3.0 0026  30.10.2019
 14 14  0  0  0  0  0  0  0  0999 V2000
  -34.7739    1.0795  -48.0469 C   0  0  0  0  0  0  0  0  0  0  0  0
  -35.9521    1.5149  -47.1734 C   0  0  0  0  0  0  0  0  0  0  0  0
  -35.4565    2.2504  -46.0237 O   0  0  0  0  0  0  0  0  0  0  0  0
  -36.3725    2.7073  -45.1492 C   0  0  0  0  0  0  0  0  0  0  0  0
  -37.5538    2.4972  -45.3413 O   0  0  0  0  0  0  0  0  0  0  0  0
  -35.9792    3.3978  -44.0605 N   0  0  0  0  0  0  0  0  0  0  0  0
  -36.9669    3.9027  -43.0971 C   0  0  0  0  0  0  0  0  0  0  0  0
  -36.7440    5.4055  -42.8997 C   0  0  0  0  0  0  0  0  0  0  0  0
  -35.2875    5.6524  -42.4989 C   0  0  0  0  0  0  0  0  0  0  0  0
  -34.3575    5.1651  -43.6123 C   0  0  0  0  0  0  0  0  0  0  0  0
  -34.5545    3.6594  -43.8143 C   0  0  0  0  0  0  0  0  0  0  0  0
  -35.0721    7.1269  -42.2742 C   0  0  0  0  0  0  0  0  0  0  0  0
  -35.9875    7.9003  -42.4233 O   0  0  0  0  0  0  0  0  0  0  0  0
  -33.4775    7.7251  -41.7921 X   0  0  0  0  0  0  0  0  0  0  0  0
  1  2  1  0  0  0  0
  2  3  1  0  0  0  0
  3  4  1  0  0  0  0
  4  5  2  0  0  0  0
  4  6  1  0  0  0  0
  6  7  1  0  0  0  0
  6 11  1  0  0  0  0
  7  8  1  0  0  0  0
  8  9  1  0  0  0  0
  9 10  1  0  0  0  0
  9 12  1  0  0  0  0
 10 11  1  0  0  0  0
 12 13  2  0  0  0  0
 12 14  1  0  0  0  0
M  END
> <Index>
1440

> <PropertyFieldDistance>
nan

$$$$
60828
BBcorina  12272117083D 1   1.00000     0.00000 
CORINA 4.3.0 0026  30.10.2019
 12 12  0  0  0  0  0  0  0  0999 V2000
  -35.6890    1.9504  -46.0005 C   0  0  0  0  0  0  0  0  0  0  0  0
  -36.6102    2.5900  -44.9937 C   0  0  0  0  0  0  0  0  0  0  0  0
  -37.8091    2.4284  -45.0802 O   0  0  0  0  0  0  0  0  0  0  0  0
  -36.1014    3.3371  -43.9940 N   0  0  0  0  0  0  0  0  0  0  0  0
  -36.9862    3.9620  -43.0015 C   0  0  0  0  0  0  0  0  0  0  0  0
  -36.6783    5.4615  -42.9412 C   0  0  0  0  0  0  0  0  0  0  0  0
  -35.1860    5.6612  -42.6669 C   0  0  0  0  0  0  0  0  0  0  0  0
  -34.3695    5.0458  -43.8056 C   0  0  0  0  0  0  0  0  0  0  0  0
  -34.6508    3.5370  -43.8725 C   0  0  0  0  0  0  0  0  0  0  0  0
  -34.8855    7.1350  -42.5732 C   0  0  0  0  0  0  0  0  0  0  0  0
  -34.1006    7.6411  -43.3388 O   0  0  0  0  0  0  0  0  0  0  0  0
  -35.6831    8.1241  -41.3410 X   0  0  0  0  0  0  0  0  0  0  0  0
  1  2  1  0  0  0  0
  2  3  2  0  0  0  0
  2  4  1  0  0  0  0
  4  5  1  0  0  0  0
  4  9  1  0  0  0  0
  5  6  1  0  0  0  0
  6  7  1  0  0  0  0
  7  8  1  0  0  0  0
  7 10  1  0  0  0  0
  8  9  1  0  0  0  0
 10 11  2  0  0  0  0
 10 12  1  0  0  0  0
M  END
> <Index>
1441

> <PropertyFieldDistance>
nan

$$$$
101683
BBcorina  12272117083D 1   1.00000     0.00000 
CORINA 4.3.0 0026  30.10.2019
 15 15  0  0  0  0  0  0  0  0999 V2000
  -36.5168    1.1859  -47.0264 C   0  0  0  0  0  0  0  0  0  0  0  0
  -35.6937    1.9995  -46.0257 C   0  0  0  0  0  0  0  0  0  0  0  0
  -34.6400    1.0978  -45.3796 C   0  0  0  0  0  0  0  0  0  0  0  0
  -35.0007    3.1529  -46.7539 C   0  0  0  0  0  0  0  0  0  0  0  0
  -36.6033    2.5530  -44.9594 C   0  0  0  0  0  0  0  0  0  0  0  0
  -37.7903    2.3052  -44.9863 O   0  0  0  0  0  0  0  0  0  0  0  0
  -36.0979    3.3234  -43.9758 N   0  0  0  0  0  0  0  0  0  0  0  0
  -36.9857    3.9662  -42.9973 C   0  0  0  0  0  0  0  0  0  0  0  0
  -36.6837    5.4677  -42.9693 C   0  0  0  0  0  0  0  0  0  0  0  0
  -35.1923    5.6791  -42.6986 C   0  0  0  0  0  0  0  0  0  0  0  0
  -34.3729    5.0425  -43.8236 C   0  0  0  0  0  0  0  0  0  0  0  0
  -34.6482    3.5315  -43.8579 C   0  0  0  0  0  0  0  0  0  0  0  0
  -34.8976    7.1556  -42.6366 C   0  0  0  0  0  0  0  0  0  0  0  0
  -34.1142    7.6482  -43.4125 O   0  0  0  0  0  0  0  0  0  0  0  0
  -35.6995    8.1681  -41.4263 X   0  0  0  0  0  0  0  0  0  0  0  0
  1  2  1  0  0  0  0
  2  3  1  0  0  0  0
  2  4  1  0  0  0  0
  2  5  1  0  0  0  0
  5  6  2  0  0  0  0
  5  7  1  0  0  0  0
  7  8  1  0  0  0  0
  7 12  1  0  0  0  0
  8  9  1  0  0  0  0
  9 10  1  0  0  0  0
 10 11  1  0  0  0  0
 10 13  1  0  0  0  0
 11 12  1  0  0  0  0
 13 14  2  0  0  0  0
 13 15  1  0  0  0  0
M  END
> <Index>
1583

> <PropertyFieldDistance>
nan

$$$$
339692
BBcorina  12272117083D 1   1.00000     0.00000 
CORINA 4.3.0 0026  30.10.2019
 12 13  0  0  0  0  0  0  0  0999 V2000
  -36.5925    6.5321  -43.7337 C   0  0  0  0  0  0  0  0  0  0  0  0
  -35.6363    7.0867  -44.2200 O   0  0  0  0  0  0  0  0  0  0  0  0
  -36.3934    5.3615  -42.8059 C   0  0  0  0  0  0  0  0  0  0  0  0
  -37.0783    4.0932  -43.3613 C   0  0  0  0  0  0  0  0  0  0  0  0
  -36.0436    3.3960  -44.1342 N   0  0  0  0  0  0  0  0  0  0  0  0
  -36.3148    2.3490  -45.1223 C   0  0  0  0  0  0  0  0  0  0  0  0
  -35.6989    0.9700  -44.8775 C   0  0  0  0  0  0  0  0  0  0  0  0
  -35.1445    1.8707  -45.9840 C   0  0  0  0  0  0  0  0  0  0  0  0
  -34.8149    3.8376  -43.8148 C   0  0  0  0  0  0  0  0  0  0  0  0
  -33.7812    3.4233  -44.2951 O   0  0  0  0  0  0  0  0  0  0  0  0
  -34.9093    4.9290  -42.7713 C   0  0  0  0  0  0  0  0  0  0  0  0
  -38.2280    7.0945  -44.1107 X   0  0  0  0  0  0  0  0  0  0  0  0
  1  2  2  0  0  0  0
  1  3  1  0  0  0  0
  1 12  1  0  0  0  0
  3  4  1  0  0  0  0
  3 11  1  0  0  0  0
  4  5  1  0  0  0  0
  5  6  1  0  0  0  0
  5  9  1  0  0  0  0
  6  7  1  0  0  0  0
  6  8  1  0  0  0  0
  7  8  1  0  0  0  0
  9 10  2  0  0  0  0
  9 11  1  0  0  0  0
M  END
> <Index>
1615

> <PropertyFieldDistance>
nan

$$$$
103126
BBcorina  12272117083D 1   1.00000     0.00000 
CORINA 4.3.0 0026  30.10.2019
  9  9  0  0  0  0  0  0  0  0999 V2000
  -36.9308    4.0727  -42.2306 C   0  0  0  0  0  0  0  0  0  0  0  0
  -37.3701    3.2787  -41.4338 O   0  0  0  0  0  0  0  0  0  0  0  0
  -36.2286    3.5848  -43.4716 C   0  0  0  0  0  0  0  0  0  0  0  0
  -36.2078    2.0532  -43.4800 C   0  0  0  0  0  0  0  0  0  0  0  0
  -35.4247    1.5680  -44.7027 C   0  0  0  0  0  0  0  0  0  0  0  0
  -34.1037    2.1118  -44.6671 O   0  0  0  0  0  0  0  0  0  0  0  0
  -34.0593    3.5397  -44.7051 C   0  0  0  0  0  0  0  0  0  0  0  0
  -34.7876    4.1041  -43.4825 C   0  0  0  0  0  0  0  0  0  0  0  0
  -37.1117    5.8094  -41.9410 X   0  0  0  0  0  0  0  0  0  0  0  0
  1  2  2  0  0  0  0
  1  3  1  0  0  0  0
  1  9  1  0  0  0  0
  3  4  1  0  0  0  0
  3  8  1  0  0  0  0
  4  5  1  0  0  0  0
  5  6  1  0  0  0  0
  6  7  1  0  0  0  0
  7  8  1  0  0  0  0
M  END
> <Index>
1629

> <PropertyFieldDistance>
nan

$$$$
300280
BBcorina  12272117083D 1   1.00000     0.00000 
CORINA 4.3.0 0026  30.10.2019
 13 15  0  0  0  0  0  0  0  0999 V2000
  -36.9096    5.4018  -43.6980 C   0  0  0  0  0  0  0  0  0  0  0  0
  -36.3863    6.0078  -42.7940 O   0  0  0  0  0  0  0  0  0  0  0  0
  -36.8892    3.8950  -43.7063 C   0  0  0  0  0  0  0  0  0  0  0  0
  -36.1492    3.3882  -42.4668 C   0  0  0  0  0  0  0  0  0  0  0  0
  -36.1284    1.8583  -42.4752 C   0  0  0  0  0  0  0  0  0  0  0  0
  -35.4123    1.3649  -43.7340 C   0  0  0  0  0  0  0  0  0  0  0  0
  -33.9769    1.8945  -43.7448 C   0  0  0  0  0  0  0  0  0  0  0  0
  -33.9977    3.4243  -43.7364 C   0  0  0  0  0  0  0  0  0  0  0  0
  -34.7138    3.9177  -42.4776 C   0  0  0  0  0  0  0  0  0  0  0  0
  -34.7376    3.9312  -44.9760 C   0  0  0  0  0  0  0  0  0  0  0  0
  -36.1730    3.4016  -44.9651 C   0  0  0  0  0  0  0  0  0  0  0  0
  -36.1523    1.8717  -44.9735 C   0  0  0  0  0  0  0  0  0  0  0  0
  -37.7006    6.2834  -45.0133 X   0  0  0  0  0  0  0  0  0  0  0  0
  1  2  2  0  0  0  0
  1  3  1  0  0  0  0
  1 13  1  0  0  0  0
  3  4  1  0  0  0  0
  3 11  1  0  0  0  0
  4  5  1  0  0  0  0
  4  9  1  0  0  0  0
  5  6  1  0  0  0  0
  6  7  1  0  0  0  0
  6 12  1  0  0  0  0
  7  8  1  0  0  0  0
  8  9  1  0  0  0  0
  8 10  1  0  0  0  0
 10 11  1  0  0  0  0
 11 12  1  0  0  0  0
M  END
> <Index>
1653

> <PropertyFieldDistance>
nan

$$$$
119019
BBcorina  12272117083D 1   1.00000     0.00000 
CORINA 4.3.0 0026  30.10.2019
 16 16  0  0  0  0  0  0  0  0999 V2000
  -36.8865    2.4128  -47.9883 C   0  0  0  0  0  0  0  0  0  0  0  0
  -35.9522    1.5158  -47.1738 C   0  0  0  0  0  0  0  0  0  0  0  0
  -34.7739    1.0802  -48.0472 C   0  0  0  0  0  0  0  0  0  0  0  0
  -36.7185    0.2800  -46.6978 C   0  0  0  0  0  0  0  0  0  0  0  0
  -35.4565    2.2507  -46.0239 O   0  0  0  0  0  0  0  0  0  0  0  0
  -36.3725    2.7076  -45.1493 C   0  0  0  0  0  0  0  0  0  0  0  0
  -37.5538    2.4982  -45.3418 O   0  0  0  0  0  0  0  0  0  0  0  0
  -35.9792    3.3976  -44.0603 N   0  0  0  0  0  0  0  0  0  0  0  0
  -36.9669    3.9026  -43.0970 C   0  0  0  0  0  0  0  0  0  0  0  0
  -36.7441    5.4054  -42.8999 C   0  0  0  0  0  0  0  0  0  0  0  0
  -35.2876    5.6525  -42.4991 C   0  0  0  0  0  0  0  0  0  0  0  0
  -34.3575    5.1651  -43.6124 C   0  0  0  0  0  0  0  0  0  0  0  0
  -34.5545    3.6593  -43.8142 C   0  0  0  0  0  0  0  0  0  0  0  0
  -35.0722    7.1271  -42.2747 C   0  0  0  0  0  0  0  0  0  0  0  0
  -35.9876    7.9004  -42.4239 O   0  0  0  0  0  0  0  0  0  0  0  0
  -33.4777    7.7254  -41.7927 X   0  0  0  0  0  0  0  0  0  0  0  0
  1  2  1  0  0  0  0
  2  3  1  0  0  0  0
  2  4  1  0  0  0  0
  2  5  1  0  0  0  0
  5  6  1  0  0  0  0
  6  7  2  0  0  0  0
  6  8  1  0  0  0  0
  8  9  1  0  0  0  0
  8 13  1  0  0  0  0
  9 10  1  0  0  0  0
 10 11  1  0  0  0  0
 11 12  1  0  0  0  0
 11 14  1  0  0  0  0
 12 13  1  0  0  0  0
 14 15  2  0  0  0  0
 14 16  1  0  0  0  0
M  END
> <Index>
1816

> <PropertyFieldDistance>
nan

$$$$
131839
BBcorina  12272117083D 1   1.00000     0.00000 
CORINA 4.3.0 0026  30.10.2019
 15 17  0  0  0  0  0  0  0  0999 V2000
  -38.5735    4.2327  -43.7416 O   0  0  0  0  0  0  0  0  0  0  0  0
  -37.3264    3.5351  -43.7513 C   0  0  0  0  0  0  0  0  0  0  0  0
  -37.2393    2.6635  -45.0057 C   0  0  0  0  0  0  0  0  0  0  0  0
  -35.9041    1.9166  -45.0161 C   0  0  0  0  0  0  0  0  0  0  0  0
  -35.8052    1.0314  -43.7721 C   0  0  0  0  0  0  0  0  0  0  0  0
  -35.8922    1.9030  -42.5177 C   0  0  0  0  0  0  0  0  0  0  0  0
  -37.2275    2.6499  -42.5073 C   0  0  0  0  0  0  0  0  0  0  0  0
  -36.1771    4.5451  -43.7513 C   0  0  0  0  0  0  0  0  0  0  0  0
  -34.8418    3.7981  -43.7616 C   0  0  0  0  0  0  0  0  0  0  0  0
  -33.6925    4.8081  -43.7616 C   0  0  0  0  0  0  0  0  0  0  0  0
  -32.3773    4.0724  -43.7718 C   0  0  0  0  0  0  0  0  0  0  0  0
  -32.3609    2.8649  -43.7785 O   0  0  0  0  0  0  0  0  0  0  0  0
  -34.7548    2.9265  -45.0161 C   0  0  0  0  0  0  0  0  0  0  0  0
  -34.7429    2.9129  -42.5177 C   0  0  0  0  0  0  0  0  0  0  0  0
  -30.8566    4.9782  -43.7815 X   0  0  0  0  0  0  0  0  0  0  0  0
  1  2  1  0  0  0  0
  2  3  1  0  0  0  0
  2  7  1  0  0  0  0
  2  8  1  0  0  0  0
  3  4  1  0  0  0  0
  4  5  1  0  0  0  0
  4 13  1  0  0  0  0
  5  6  1  0  0  0  0
  6  7  1  0  0  0  0
  6 14  1  0  0  0  0
  8  9  1  0  0  0  0
  9 10  1  0  0  0  0
  9 13  1  0  0  0  0
  9 14  1  0  0  0  0
 10 11  1  0  0  0  0
 11 12  2  0  0  0  0
 11 15  1  0  0  0  0
M  END
> <Index>
1876

> <PropertyFieldDistance>
nan

$$$$
134170
BBcorina  12272117083D 1   1.00000     0.00000 
CORINA 4.3.0 0026  30.10.2019
 12 12  0  0  0  0  0  0  0  0999 V2000
  -36.5080    0.8098  -46.7956 C   0  0  0  0  0  0  0  0  0  0  0  0
  -36.5263   -0.1864  -46.1133 O   0  0  0  0  0  0  0  0  0  0  0  0
  -36.3183    2.1598  -46.1532 C   0  0  0  0  0  0  0  0  0  0  0  0
  -36.1742    1.9886  -44.6397 C   0  0  0  0  0  0  0  0  0  0  0  0
  -35.9897    3.3009  -44.0151 N   0  0  0  0  0  0  0  0  0  0  0  0
  -37.0136    4.0507  -43.5888 C   0  0  0  0  0  0  0  0  0  0  0  0
  -38.1849    3.7477  -43.6639 O   0  0  0  0  0  0  0  0  0  0  0  0
  -36.4771    5.3366  -42.9987 C   0  0  0  0  0  0  0  0  0  0  0  0
  -34.9494    5.1986  -43.1598 C   0  0  0  0  0  0  0  0  0  0  0  0
  -34.7831    3.8466  -43.8187 C   0  0  0  0  0  0  0  0  0  0  0  0
  -33.7250    3.3392  -44.1231 O   0  0  0  0  0  0  0  0  0  0  0  0
  -36.7044    0.6845  -48.5503 X   0  0  0  0  0  0  0  0  0  0  0  0
  1  2  2  0  0  0  0
  1  3  1  0  0  0  0
  1 12  1  0  0  0  0
  3  4  1  0  0  0  0
  4  5  1  0  0  0  0
  5  6  1  0  0  0  0
  5 10  1  0  0  0  0
  6  7  2  0  0  0  0
  6  8  1  0  0  0  0
  8  9  1  0  0  0  0
  9 10  1  0  0  0  0
 10 11  2  0  0  0  0
M  END
> <Index>
1915

> <PropertyFieldDistance>
nan

$$$$
134472
BBcorina  12272117083D 1   1.00000     0.00000 
CORINA 4.3.0 0026  30.10.2019
 12 12  0  0  0  0  0  0  0  0999 V2000
  -37.0749    2.0476  -45.6893 C   0  0  0  0  0  0  0  0  0  0  0  0
  -35.7373    2.5249  -45.1852 C   0  0  0  0  0  0  0  0  0  0  0  0
  -34.7215    2.2066  -45.7664 O   0  0  0  0  0  0  0  0  0  0  0  0
  -35.6699    3.3054  -44.0886 N   0  0  0  0  0  0  0  0  0  0  0  0
  -36.8916    3.6990  -43.3736 C   0  0  0  0  0  0  0  0  0  0  0  0
  -36.9143    5.2248  -43.2390 C   0  0  0  0  0  0  0  0  0  0  0  0
  -35.6183    5.6943  -42.5743 C   0  0  0  0  0  0  0  0  0  0  0  0
  -34.4242    5.3035  -43.4481 C   0  0  0  0  0  0  0  0  0  0  0  0
  -34.3732    3.7786  -43.5851 C   0  0  0  0  0  0  0  0  0  0  0  0
  -33.1509    5.7939  -42.8083 C   0  0  0  0  0  0  0  0  0  0  0  0
  -33.1940    6.3995  -41.7644 O   0  0  0  0  0  0  0  0  0  0  0  0
  -31.5928    5.4886  -43.5907 X   0  0  0  0  0  0  0  0  0  0  0  0
  1  2  1  0  0  0  0
  2  3  2  0  0  0  0
  2  4  1  0  0  0  0
  4  5  1  0  0  0  0
  4  9  1  0  0  0  0
  5  6  1  0  0  0  0
  6  7  1  0  0  0  0
  7  8  1  0  0  0  0
  8  9  1  0  0  0  0
  8 10  1  0  0  0  0
 10 11  2  0  0  0  0
 10 12  1  0  0  0  0
M  END
> <Index>
1930

> <PropertyFieldDistance>
nan

$$$$
138730
BBcorina  12272117083D 1   1.00000     0.00000 
CORINA 4.3.0 0026  30.10.2019
 16 17  0  0  0  0  0  0  0  0999 V2000
  -34.9636    6.9304  -41.8504 C   0  0  0  0  0  0  0  0  0  0  0  0
  -33.8819    6.7935  -41.3311 O   0  0  0  0  0  0  0  0  0  0  0  0
  -35.3833    6.0133  -42.9700 C   0  0  0  0  0  0  0  0  0  0  0  0
  -36.6554    5.2624  -42.5668 C   0  0  0  0  0  0  0  0  0  0  0  0
  -37.0433    4.2897  -43.6828 C   0  0  0  0  0  0  0  0  0  0  0  0
  -35.9454    3.3417  -43.9109 N   0  0  0  0  0  0  0  0  0  0  0  0
  -34.7262    4.0356  -44.3451 C   0  0  0  0  0  0  0  0  0  0  0  0
  -34.2691    5.0007  -43.2489 C   0  0  0  0  0  0  0  0  0  0  0  0
  -36.3354    2.3075  -44.8787 C   0  0  0  0  0  0  0  0  0  0  0  0
  -35.1267    1.4072  -45.1891 C   0  0  0  0  0  0  0  0  0  0  0  0
  -35.6786    0.1658  -45.9362 C   0  0  0  0  0  0  0  0  0  0  0  0
  -37.1948   -0.2303  -44.9857 S   0  0  0  0  0  0  0  0  0  0  0  0
  -38.2501   -0.5341  -45.8876 O   0  0  0  0  0  0  0  0  0  0  0  0
  -36.8724   -1.1389  -43.9419 O   0  0  0  0  0  0  0  0  0  0  0  0
  -37.4625    1.4353  -44.2784 C   0  0  0  0  0  0  0  0  0  0  0  0
  -36.0558    8.2084  -41.2965 X   0  0  0  0  0  0  0  0  0  0  0  0
  1  2  2  0  0  0  0
  1  3  1  0  0  0  0
  1 16  1  0  0  0  0
  3  4  1  0  0  0  0
  3  8  1  0  0  0  0
  4  5  1  0  0  0  0
  5  6  1  0  0  0  0
  6  7  1  0  0  0  0
  6  9  1  0  0  0  0
  7  8  1  0  0  0  0
  9 10  1  0  0  0  0
  9 15  1  0  0  0  0
 10 11  1  0  0  0  0
 11 12  1  0  0  0  0
 12 13  2  0  0  0  0
 12 14  2  0  0  0  0
 12 15  1  0  0  0  0
M  END
> <Index>
1951

> <PropertyFieldDistance>
nan

$$$$
136797
BBcorina  12272117083D 1   1.00000     0.00000 
CORINA 4.3.0 0026  30.10.2019
 12 12  0  0  0  0  0  0  0  0999 V2000
  -37.6713    2.3837  -45.3086 N   0  0  0  0  0  0  0  0  0  0  0  0
  -36.3728    2.7078  -45.1490 C   0  0  0  0  0  0  0  0  0  0  0  0
  -35.5564    2.3777  -45.9874 O   0  0  0  0  0  0  0  0  0  0  0  0
  -35.9794    3.3978  -44.0602 N   0  0  0  0  0  0  0  0  0  0  0  0
  -36.9671    3.9022  -43.0964 C   0  0  0  0  0  0  0  0  0  0  0  0
  -36.7430    5.4051  -42.9017 C   0  0  0  0  0  0  0  0  0  0  0  0
  -35.2877    5.6519  -42.4977 C   0  0  0  0  0  0  0  0  0  0  0  0
  -34.3578    5.1652  -43.6116 C   0  0  0  0  0  0  0  0  0  0  0  0
  -34.5547    3.6596  -43.8142 C   0  0  0  0  0  0  0  0  0  0  0  0
  -32.9265    5.4380  -43.2269 C   0  0  0  0  0  0  0  0  0  0  0  0
  -32.6759    5.9743  -42.1743 O   0  0  0  0  0  0  0  0  0  0  0  0
  -31.6132    4.9789  -44.3211 X   0  0  0  0  0  0  0  0  0  0  0  0
  1  2  1  0  0  0  0
  2  3  2  0  0  0  0
  2  4  1  0  0  0  0
  4  5  1  0  0  0  0
  4  9  1  0  0  0  0
  5  6  1  0  0  0  0
  6  7  1  0  0  0  0
  7  8  1  0  0  0  0
  8  9  1  0  0  0  0
  8 10  1  0  0  0  0
 10 11  2  0  0  0  0
 10 12  1  0  0  0  0
M  END
> <Index>
1956

> <PropertyFieldDistance>
nan

$$$$
147555
BBcorina  12272117083D 1   1.00000     0.00000 
CORINA 4.3.0 0026  30.10.2019
 11 11  0  0  0  0  0  0  0  0999 V2000
  -36.4043    2.3250  -44.9964 C   0  0  0  0  0  0  0  0  0  0  0  0
  -36.0343    3.4242  -44.1012 N   0  0  0  0  0  0  0  0  0  0  0  0
  -34.6846    3.6929  -43.8517 N   0  0  0  0  0  0  0  0  0  0  0  0
  -34.3187    4.3869  -42.8145 C   0  0  0  0  0  0  0  0  0  0  0  0
  -35.3382    4.9220  -41.8446 C   0  0  0  0  0  0  0  0  0  0  0  0
  -36.6159    5.2973  -42.5980 C   0  0  0  0  0  0  0  0  0  0  0  0
  -36.9965    4.1695  -43.5234 C   0  0  0  0  0  0  0  0  0  0  0  0
  -38.1647    3.9340  -43.7466 O   0  0  0  0  0  0  0  0  0  0  0  0
  -32.9450    4.6427  -42.5951 C   0  0  0  0  0  0  0  0  0  0  0  0
  -32.5947    5.2900  -41.6298 O   0  0  0  0  0  0  0  0  0  0  0  0
  -31.7367    4.0190  -43.7282 X   0  0  0  0  0  0  0  0  0  0  0  0
  1  2  1  0  0  0  0
  2  3  1  0  0  0  0
  2  7  1  0  0  0  0
  3  4  2  0  0  0  0
  4  5  1  0  0  0  0
  4  9  1  0  0  0  0
  5  6  1  0  0  0  0
  6  7  1  0  0  0  0
  7  8  2  0  0  0  0
  9 10  2  0  0  0  0
  9 11  1  0  0  0  0
M  END
> <Index>
2052

> <PropertyFieldDistance>
nan

$$$$
15158390
BBcorina  12272117083D 1   1.00000     0.00000 
CORINA 4.3.0 0026  30.10.2019
 14 15  0  0  0  0  0  0  0  0999 V2000
  -34.9648    6.9069  -41.8406 C   0  0  0  0  0  0  0  0  0  0  0  0
  -35.6156    6.9498  -40.8243 O   0  0  0  0  0  0  0  0  0  0  0  0
  -35.3854    5.9982  -42.9668 C   0  0  0  0  0  0  0  0  0  0  0  0
  -36.6588    5.2465  -42.5694 C   0  0  0  0  0  0  0  0  0  0  0  0
  -37.0467    4.2811  -43.6917 C   0  0  0  0  0  0  0  0  0  0  0  0
  -35.9497    3.3330  -43.9245 N   0  0  0  0  0  0  0  0  0  0  0  0
  -34.7292    4.0280  -44.3531 C   0  0  0  0  0  0  0  0  0  0  0  0
  -34.2722    4.9859  -43.2506 C   0  0  0  0  0  0  0  0  0  0  0  0
  -36.3180    2.3632  -44.8438 C   0  0  0  0  0  0  0  0  0  0  0  0
  -35.5564    1.3938  -45.2463 N   0  0  0  0  0  0  0  0  0  0  0  0
  -36.0715    0.5572  -46.1296 C   0  0  0  0  0  0  0  0  0  0  0  0
  -37.3253    0.8330  -46.4892 C   0  0  0  0  0  0  0  0  0  0  0  0
  -37.8425    2.2707  -45.6122 S   0  0  0  0  0  0  0  0  0  0  0  0
  -33.5170    7.9112  -42.0074 X   0  0  0  0  0  0  0  0  0  0  0  0
  1  2  2  0  0  0  0
  1  3  1  0  0  0  0
  1 14  1  0  0  0  0
  3  4  1  0  0  0  0
  3  8  1  0  0  0  0
  4  5  1  0  0  0  0
  5  6  1  0  0  0  0
  6  7  1  0  0  0  0
  6  9  1  0  0  0  0
  7  8  1  0  0  0  0
  9 10  2  0  0  0  0
  9 13  1  0  0  0  0
 10 11  1  0  0  0  0
 11 12  2  0  0  0  0
 12 13  1  0  0  0  0
M  END
> <Index>
2056

> <PropertyFieldDistance>
nan

$$$$
244898
BBcorina  12272117083D 1   1.00000     0.00000 
CORINA 4.3.0 0026  30.10.2019
 10 11  0  0  0  0  0  0  0  0999 V2000
  -35.5280    4.5338  -45.7798 C   0  0  0  0  0  0  0  0  0  0  0  0
  -36.0790    3.8497  -46.6085 O   0  0  0  0  0  0  0  0  0  0  0  0
  -34.9953    3.9060  -44.5176 C   0  0  0  0  0  0  0  0  0  0  0  0
  -35.7853    4.4307  -43.2723 C   0  0  0  0  0  0  0  0  0  0  0  0
  -36.4420    3.1598  -42.6520 C   0  0  0  0  0  0  0  0  0  0  0  0
  -35.2446    2.3542  -42.0547 C   0  0  0  0  0  0  0  0  0  0  0  0
  -34.4743    1.8325  -43.2892 C   0  0  0  0  0  0  0  0  0  0  0  0
  -35.2749    2.3720  -44.5137 C   0  0  0  0  0  0  0  0  0  0  0  0
  -36.7379    2.3245  -43.9475 C   0  0  0  0  0  0  0  0  0  0  0  0
  -35.3461    6.2740  -46.0477 X   0  0  0  0  0  0  0  0  0  0  0  0
  1  2  2  0  0  0  0
  1  3  1  0  0  0  0
  1 10  1  0  0  0  0
  3  4  1  0  0  0  0
  3  8  1  0  0  0  0
  4  5  1  0  0  0  0
  5  6  1  0  0  0  0
  5  9  1  0  0  0  0
  6  7  1  0  0  0  0
  7  8  1  0  0  0  0
  8  9  1  0  0  0  0
M  END
> <Index>
2059

> <PropertyFieldDistance>
nan

$$$$
321576
BBcorina  12272117083D 1   1.00000     0.00000 
CORINA 4.3.0 0026  30.10.2019
 15 16  0  0  0  0  0  0  0  0999 V2000
  -36.3477    2.3475  -44.9916 C   0  0  0  0  0  0  0  0  0  0  0  0
  -36.0019    3.4773  -44.1254 N   0  0  0  0  0  0  0  0  0  0  0  0
  -36.9761    4.1572  -43.4931 C   0  0  0  0  0  0  0  0  0  0  0  0
  -38.1343    3.8370  -43.6580 O   0  0  0  0  0  0  0  0  0  0  0  0
  -36.6453    5.3096  -42.5837 C   0  0  0  0  0  0  0  0  0  0  0  0
  -35.4398    6.0752  -43.1307 C   0  0  0  0  0  0  0  0  0  0  0  0
  -35.8464    6.8354  -44.3667 C   0  0  0  0  0  0  0  0  0  0  0  0
  -36.9833    6.7703  -44.7688 O   0  0  0  0  0  0  0  0  0  0  0  0
  -34.3416    5.1038  -43.4774 C   0  0  0  0  0  0  0  0  0  0  0  0
  -33.0190    5.4647  -43.3151 C   0  0  0  0  0  0  0  0  0  0  0  0
  -32.0133    4.5706  -43.6352 C   0  0  0  0  0  0  0  0  0  0  0  0
  -32.3289    3.3161  -44.1234 C   0  0  0  0  0  0  0  0  0  0  0  0
  -33.6507    2.9472  -44.2824 C   0  0  0  0  0  0  0  0  0  0  0  0
  -34.6622    3.8423  -43.9620 C   0  0  0  0  0  0  0  0  0  0  0  0
  -34.6578    7.8237  -45.2288 X   0  0  0  0  0  0  0  0  0  0  0  0
  1  2  1  0  0  0  0
  2  3  1  0  0  0  0
  2 14  1  0  0  0  0
  3  4  2  0  0  0  0
  3  5  1  0  0  0  0
  5  6  1  0  0  0  0
  6  7  1  0  0  0  0
  6  9  1  0  0  0  0
  7  8  2  0  0  0  0
  7 15  1  0  0  0  0
  9 10  2  0  0  0  0
  9 14  1  0  0  0  0
 10 11  1  0  0  0  0
 11 12  2  0  0  0  0
 12 13  1  0  0  0  0
 13 14  2  0  0  0  0
M  END
> <Index>
2286

> <PropertyFieldDistance>
nan

$$$$
2759360
BBcorina  12272117083D 1   1.00000     0.00000 
CORINA 4.3.0 0026  30.10.2019
 16 17  0  0  0  0  0  0  0  0999 V2000
  -35.9338    2.3345  -49.6874 C   0  0  0  0  0  0  0  0  0  0  0  0
  -35.5687    1.9948  -48.2653 C   0  0  0  0  0  0  0  0  0  0  0  0
  -36.2655    2.3145  -47.2274 N   0  0  0  0  0  0  0  0  0  0  0  0
  -35.8041    1.9335  -46.0534 C   0  0  0  0  0  0  0  0  0  0  0  0
  -36.5152    2.2379  -44.7601 C   0  0  0  0  0  0  0  0  0  0  0  0
  -36.1305    3.5765  -44.2930 N   0  0  0  0  0  0  0  0  0  0  0  0
  -36.9747    4.0050  -43.1704 C   0  0  0  0  0  0  0  0  0  0  0  0
  -36.6444    5.4542  -42.8062 C   0  0  0  0  0  0  0  0  0  0  0  0
  -35.1650    5.5547  -42.4240 C   0  0  0  0  0  0  0  0  0  0  0  0
  -34.3093    5.0572  -43.5922 C   0  0  0  0  0  0  0  0  0  0  0  0
  -34.7073    3.6195  -43.9337 C   0  0  0  0  0  0  0  0  0  0  0  0
  -34.8193    6.9902  -42.1221 C   0  0  0  0  0  0  0  0  0  0  0  0
  -33.9716    7.5561  -42.7697 O   0  0  0  0  0  0  0  0  0  0  0  0
  -34.6542    1.2546  -46.1036 C   0  0  0  0  0  0  0  0  0  0  0  0
  -34.1751    1.1237  -47.7941 S   0  0  0  0  0  0  0  0  0  0  0  0
  -35.6559    7.8465  -40.8183 X   0  0  0  0  0  0  0  0  0  0  0  0
  1  2  1  0  0  0  0
  2  3  2  0  0  0  0
  2 15  1  0  0  0  0
  3  4  1  0  0  0  0
  4  5  1  0  0  0  0
  4 14  2  0  0  0  0
  5  6  1  0  0  0  0
  6  7  1  0  0  0  0
  6 11  1  0  0  0  0
  7  8  1  0  0  0  0
  8  9  1  0  0  0  0
  9 10  1  0  0  0  0
  9 12  1  0  0  0  0
 10 11  1  0  0  0  0
 12 13  2  0  0  0  0
 12 16  1  0  0  0  0
 14 15  1  0  0  0  0
M  END
> <Index>
2305

> <PropertyFieldDistance>
nan

$$$$
731350
BBcorina  12272117083D 1   1.00000     0.00000 
CORINA 4.3.0 0026  30.10.2019
 15 16  0  0  0  0  0  0  0  0999 V2000
  -34.9648    6.9063  -41.8404 C   0  0  0  0  0  0  0  0  0  0  0  0
  -35.6156    6.9491  -40.8241 O   0  0  0  0  0  0  0  0  0  0  0  0
  -35.3855    5.9978  -42.9668 C   0  0  0  0  0  0  0  0  0  0  0  0
  -36.6590    5.2461  -42.5695 C   0  0  0  0  0  0  0  0  0  0  0  0
  -37.0468    4.2809  -43.6919 C   0  0  0  0  0  0  0  0  0  0  0  0
  -35.9498    3.3328  -43.9248 N   0  0  0  0  0  0  0  0  0  0  0  0
  -34.7293    4.0278  -44.3533 C   0  0  0  0  0  0  0  0  0  0  0  0
  -34.2722    4.9856  -43.2506 C   0  0  0  0  0  0  0  0  0  0  0  0
  -36.3176    2.3646  -44.8429 C   0  0  0  0  0  0  0  0  0  0  0  0
  -35.4462    1.4230  -45.1739 N   0  0  0  0  0  0  0  0  0  0  0  0
  -35.7677    0.4799  -46.0439 C   0  0  0  0  0  0  0  0  0  0  0  0
  -37.0327    0.4853  -46.6103 C   0  0  0  0  0  0  0  0  0  0  0  0
  -37.9195    1.4848  -46.2418 C   0  0  0  0  0  0  0  0  0  0  0  0
  -37.5345    2.3981  -45.3659 N   0  0  0  0  0  0  0  0  0  0  0  0
  -33.5169    7.9105  -42.0071 X   0  0  0  0  0  0  0  0  0  0  0  0
  1  2  2  0  0  0  0
  1  3  1  0  0  0  0
  1 15  1  0  0  0  0
  3  4  1  0  0  0  0
  3  8  1  0  0  0  0
  4  5  1  0  0  0  0
  5  6  1  0  0  0  0
  6  7  1  0  0  0  0
  6  9  1  0  0  0  0
  7  8  1  0  0  0  0
  9 10  2  0  0  0  0
  9 14  1  0  0  0  0
 10 11  1  0  0  0  0
 11 12  2  0  0  0  0
 12 13  1  0  0  0  0
 13 14  2  0  0  0  0
M  END
> <Index>
2319

> <PropertyFieldDistance>
nan

$$$$
237886
BBcorina  12272117083D 1   1.00000     0.00000 
CORINA 4.3.0 0026  30.10.2019
 13 13  0  0  0  0  0  0  0  0999 V2000
  -36.4386    5.5679  -46.6845 C   0  0  0  0  0  0  0  0  0  0  0  0
  -36.4388    3.8380  -46.1383 S   0  0  0  0  0  0  0  0  0  0  0  0
  -35.3787    3.1203  -46.7551 O   0  0  0  0  0  0  0  0  0  0  0  0
  -37.7620    3.3203  -46.1222 O   0  0  0  0  0  0  0  0  0  0  0  0
  -36.0086    3.9091  -44.5406 N   0  0  0  0  0  0  0  0  0  0  0  0
  -37.0321    4.0433  -43.4951 C   0  0  0  0  0  0  0  0  0  0  0  0
  -36.6790    5.2432  -42.6107 C   0  0  0  0  0  0  0  0  0  0  0  0
  -35.2540    5.0772  -42.0777 C   0  0  0  0  0  0  0  0  0  0  0  0
  -34.2708    5.0351  -43.2498 C   0  0  0  0  0  0  0  0  0  0  0  0
  -34.5967    3.8329  -44.1414 C   0  0  0  0  0  0  0  0  0  0  0  0
  -34.9153    6.2390  -41.1798 C   0  0  0  0  0  0  0  0  0  0  0  0
  -33.9847    6.9597  -41.4498 O   0  0  0  0  0  0  0  0  0  0  0  0
  -35.8814    6.5474  -39.7290 X   0  0  0  0  0  0  0  0  0  0  0  0
  1  2  1  0  0  0  0
  2  3  2  0  0  0  0
  2  4  2  0  0  0  0
  2  5  1  0  0  0  0
  5  6  1  0  0  0  0
  5 10  1  0  0  0  0
  6  7  1  0  0  0  0
  7  8  1  0  0  0  0
  8  9  1  0  0  0  0
  8 11  1  0  0  0  0
  9 10  1  0  0  0  0
 11 12  2  0  0  0  0
 11 13  1  0  0  0  0
M  END
> <Index>
2331

> <PropertyFieldDistance>
nan

$$$$
323288
BBcorina  12272117083D 1   1.00000     0.00000 
CORINA 4.3.0 0026  30.10.2019
 14 14  0  0  0  0  0  0  0  0999 V2000
  -36.0708    0.1208  -45.5937 C   0  0  0  0  0  0  0  0  0  0  0  0
  -35.5962    1.5753  -45.5851 C   0  0  0  0  0  0  0  0  0  0  0  0
  -35.5506    2.1054  -47.0196 C   0  0  0  0  0  0  0  0  0  0  0  0
  -36.5507    2.4104  -44.7711 C   0  0  0  0  0  0  0  0  0  0  0  0
  -37.6444    1.9731  -44.4822 O   0  0  0  0  0  0  0  0  0  0  0  0
  -36.1890    3.6433  -44.3641 N   0  0  0  0  0  0  0  0  0  0  0  0
  -37.1504    4.5174  -43.6784 C   0  0  0  0  0  0  0  0  0  0  0  0
  -36.5376    4.9874  -42.3554 C   0  0  0  0  0  0  0  0  0  0  0  0
  -35.1803    5.6392  -42.6296 C   0  0  0  0  0  0  0  0  0  0  0  0
  -34.2375    4.6122  -43.2608 C   0  0  0  0  0  0  0  0  0  0  0  0
  -34.8242    4.1379  -44.5940 C   0  0  0  0  0  0  0  0  0  0  0  0
  -34.5897    6.1330  -41.3341 C   0  0  0  0  0  0  0  0  0  0  0  0
  -33.5255    5.7067  -40.9544 O   0  0  0  0  0  0  0  0  0  0  0  0
  -35.4557    7.3378  -40.3690 X   0  0  0  0  0  0  0  0  0  0  0  0
  1  2  1  0  0  0  0
  2  3  1  0  0  0  0
  2  4  1  0  0  0  0
  4  5  2  0  0  0  0
  4  6  1  0  0  0  0
  6  7  1  0  0  0  0
  6 11  1  0  0  0  0
  7  8  1  0  0  0  0
  8  9  1  0  0  0  0
  9 10  1  0  0  0  0
  9 12  1  0  0  0  0
 10 11  1  0  0  0  0
 12 13  2  0  0  0  0
 12 14  1  0  0  0  0
M  END
> <Index>
2470

> <PropertyFieldDistance>
nan

$$$$
11757934
BBcorina  12272117083D 1   1.00000     0.00000 
CORINA 4.3.0 0026  30.10.2019
 11 11  0  0  0  0  0  0  0  0999 V2000
  -35.6694    2.1175  -45.9143 C   0  0  0  0  0  0  0  0  0  0  0  0
  -36.7839    2.3109  -44.8841 C   0  0  0  0  0  0  0  0  0  0  0  0
  -37.2252    0.9474  -44.3482 C   0  0  0  0  0  0  0  0  0  0  0  0
  -37.9742    3.0086  -45.5453 C   0  0  0  0  0  0  0  0  0  0  0  0
  -36.2873    3.1357  -43.7745 N   0  0  0  0  0  0  0  0  0  0  0  0
  -37.2867    4.1451  -43.3779 C   0  0  0  0  0  0  0  0  0  0  0  0
  -36.1347    5.1527  -43.2439 C   0  0  0  0  0  0  0  0  0  0  0  0
  -35.4493    4.2424  -44.2725 C   0  0  0  0  0  0  0  0  0  0  0  0
  -35.7434    4.6224  -45.7008 C   0  0  0  0  0  0  0  0  0  0  0  0
  -36.4799    3.9369  -46.3687 O   0  0  0  0  0  0  0  0  0  0  0  0
  -35.0095    6.0736  -46.3996 X   0  0  0  0  0  0  0  0  0  0  0  0
  1  2  1  0  0  0  0
  2  3  1  0  0  0  0
  2  4  1  0  0  0  0
  2  5  1  0  0  0  0
  5  6  1  0  0  0  0
  5  8  1  0  0  0  0
  6  7  1  0  0  0  0
  7  8  1  0  0  0  0
  8  9  1  0  0  0  0
  9 10  2  0  0  0  0
  9 11  1  0  0  0  0
M  END
> <Index>
2638

> <PropertyFieldDistance>
nan

$$$$
12120972
BBcorina  12272117083D 1   1.00000     0.00000 
CORINA 4.3.0 0026  30.10.2019
 12 13  0  0  0  0  0  0  0  0999 V2000
  -38.3060    2.5974  -42.1930 C   0  0  0  0  0  0  0  0  0  0  0  0
  -38.3292    2.7439  -40.9945 O   0  0  0  0  0  0  0  0  0  0  0  0
  -37.0573    2.9353  -42.9705 C   0  0  0  0  0  0  0  0  0  0  0  0
  -35.8127    2.0647  -42.7170 C   0  0  0  0  0  0  0  0  0  0  0  0
  -34.9872    1.6619  -43.9324 C   0  0  0  0  0  0  0  0  0  0  0  0
  -35.7329    2.1097  -45.1943 C   0  0  0  0  0  0  0  0  0  0  0  0
  -35.1761    3.4371  -45.6496 C   0  0  0  0  0  0  0  0  0  0  0  0
  -34.0642    4.1968  -44.9613 C   0  0  0  0  0  0  0  0  0  0  0  0
  -33.8213    4.0096  -43.4563 C   0  0  0  0  0  0  0  0  0  0  0  0
  -35.0995    4.5776  -42.8161 C   0  0  0  0  0  0  0  0  0  0  0  0
  -35.8633    3.4596  -42.1543 C   0  0  0  0  0  0  0  0  0  0  0  0
  -39.7364    1.9864  -43.0377 X   0  0  0  0  0  0  0  0  0  0  0  0
  1  2  2  0  0  0  0
  1  3  1  0  0  0  0
  1 12  1  0  0  0  0
  3  4  1  0  0  0  0
  3 11  1  0  0  0  0
  4  5  1  0  0  0  0
  4 11  1  0  0  0  0
  5  6  1  0  0  0  0
  6  7  1  0  0  0  0
  7  8  1  0  0  0  0
  8  9  1  0  0  0  0
  9 10  1  0  0  0  0
 10 11  1  0  0  0  0
M  END
> <Index>
2703

> <PropertyFieldDistance>
nan

$$$$
9475878
BBcorina  12272117083D 1   1.00000     0.00000 
CORINA 4.3.0 0026  30.10.2019
 10 10  0  0  0  0  0  0  0  0999 V2000
  -37.8727    4.9273  -44.3352 O   0  0  0  0  0  0  0  0  0  0  0  0
  -36.6256    4.2297  -44.3449 C   0  0  0  0  0  0  0  0  0  0  0  0
  -35.8224    4.6034  -43.0975 C   0  0  0  0  0  0  0  0  0  0  0  0
  -34.4872    3.8565  -43.1078 C   0  0  0  0  0  0  0  0  0  0  0  0
  -34.7463    2.3486  -43.1148 C   0  0  0  0  0  0  0  0  0  0  0  0
  -35.5494    1.9749  -44.3623 C   0  0  0  0  0  0  0  0  0  0  0  0
  -36.8847    2.7218  -44.3519 C   0  0  0  0  0  0  0  0  0  0  0  0
  -33.4311    1.6129  -43.1250 C   0  0  0  0  0  0  0  0  0  0  0  0
  -32.3936    2.2309  -43.1316 O   0  0  0  0  0  0  0  0  0  0  0  0
  -33.4071   -0.1569  -43.1348 X   0  0  0  0  0  0  0  0  0  0  0  0
  1  2  1  0  0  0  0
  2  3  1  0  0  0  0
  2  7  1  0  0  0  0
  3  4  1  0  0  0  0
  4  5  1  0  0  0  0
  5  6  1  0  0  0  0
  5  8  1  0  0  0  0
  6  7  1  0  0  0  0
  8  9  2  0  0  0  0
  8 10  1  0  0  0  0
M  END
> <Index>
2754

> <PropertyFieldDistance>
nan

$$$$
5581126
BBcorina  12272117083D 1   1.00000     0.00000 
CORINA 4.3.0 0026  30.10.2019
 10 10  0  0  0  0  0  0  0  0999 V2000
  -36.2287    2.0313  -45.9677 C   0  0  0  0  0  0  0  0  0  0  0  0
  -36.3158    2.9029  -44.7133 C   0  0  0  0  0  0  0  0  0  0  0  0
  -35.1664    3.9129  -44.7132 C   0  0  0  0  0  0  0  0  0  0  0  0
  -35.2535    4.7845  -43.4588 C   0  0  0  0  0  0  0  0  0  0  0  0
  -35.1546    3.8993  -42.2148 C   0  0  0  0  0  0  0  0  0  0  0  0
  -36.3039    2.8893  -42.2148 C   0  0  0  0  0  0  0  0  0  0  0  0
  -36.2169    2.0177  -43.4693 C   0  0  0  0  0  0  0  0  0  0  0  0
  -33.8394    3.1636  -42.2250 C   0  0  0  0  0  0  0  0  0  0  0  0
  -33.8230    1.9561  -42.2317 O   0  0  0  0  0  0  0  0  0  0  0  0
  -32.3187    4.0694  -42.2347 X   0  0  0  0  0  0  0  0  0  0  0  0
  1  2  1  0  0  0  0
  2  3  1  0  0  0  0
  2  7  1  0  0  0  0
  3  4  1  0  0  0  0
  4  5  1  0  0  0  0
  5  6  1  0  0  0  0
  5  8  1  0  0  0  0
  6  7  1  0  0  0  0
  8  9  2  0  0  0  0
  8 10  1  0  0  0  0
M  END
> <Index>
2768

> <PropertyFieldDistance>
nan

$$$$
7109438
BBcorina  12272117083D 1   1.00000     0.00000 
CORINA 4.3.0 0026  30.10.2019
  8  8  0  0  0  0  0  0  0  0999 V2000
  -37.6534    2.1613  -43.8170 C   0  0  0  0  0  0  0  0  0  0  0  0
  -37.8337    0.9615  -43.8223 O   0  0  0  0  0  0  0  0  0  0  0  0
  -36.2922    2.6963  -43.8199 C   0  0  0  0  0  0  0  0  0  0  0  0
  -35.1873    1.9543  -43.8286 C   0  0  0  0  0  0  0  0  0  0  0  0
  -33.9561    2.8306  -43.8357 C   0  0  0  0  0  0  0  0  0  0  0  0
  -34.4589    4.2243  -43.3957 C   0  0  0  0  0  0  0  0  0  0  0  0
  -35.9470    4.1675  -43.8095 C   0  0  0  0  0  0  0  0  0  0  0  0
  -39.0378    3.2642  -43.8057 X   0  0  0  0  0  0  0  0  0  0  0  0
  1  2  2  0  0  0  0
  1  3  1  0  0  0  0
  1  8  1  0  0  0  0
  3  4  2  0  0  0  0
  3  7  1  0  0  0  0
  4  5  1  0  0  0  0
  5  6  1  0  0  0  0
  6  7  1  0  0  0  0
M  END
> <Index>
2771

> <PropertyFieldDistance>
nan

$$$$
1001504
BBcorina  12272117083D 1   1.00000     0.00000 
CORINA 4.3.0 0026  30.10.2019
 16 17  0  0  0  0  0  0  0  0999 V2000
  -37.3967   -1.6993  -46.7163 Br  0  0  0  0  0  0  0  0  0  0  0  0
  -36.9361   -0.0099  -46.0023 C   0  0  0  0  0  0  0  0  0  0  0  0
  -35.8799    0.7146  -46.5396 C   0  0  0  0  0  0  0  0  0  0  0  0
  -35.5763    1.9465  -45.9880 C   0  0  0  0  0  0  0  0  0  0  0  0
  -36.3345    2.4151  -44.9202 C   0  0  0  0  0  0  0  0  0  0  0  0
  -37.3309    1.6923  -44.4323 N   0  0  0  0  0  0  0  0  0  0  0  0
  -37.6468    0.5166  -44.9411 C   0  0  0  0  0  0  0  0  0  0  0  0
  -36.0397    3.6514  -44.3562 N   0  0  0  0  0  0  0  0  0  0  0  0
  -36.9542    3.9558  -43.2483 C   0  0  0  0  0  0  0  0  0  0  0  0
  -36.6961    5.3791  -42.7485 C   0  0  0  0  0  0  0  0  0  0  0  0
  -35.2424    5.4951  -42.2816 C   0  0  0  0  0  0  0  0  0  0  0  0
  -34.3115    5.1260  -43.4400 C   0  0  0  0  0  0  0  0  0  0  0  0
  -34.6388    3.7102  -43.9198 C   0  0  0  0  0  0  0  0  0  0  0  0
  -34.9653    6.9103  -41.8441 C   0  0  0  0  0  0  0  0  0  0  0  0
  -35.8396    7.7415  -41.8995 O   0  0  0  0  0  0  0  0  0  0  0  0
  -33.3586    7.3543  -41.2492 X   0  0  0  0  0  0  0  0  0  0  0  0
  1  2  1  0  0  0  0
  2  3  2  0  0  0  0
  2  7  1  0  0  0  0
  3  4  1  0  0  0  0
  4  5  2  0  0  0  0
  5  6  1  0  0  0  0
  5  8  1  0  0  0  0
  6  7  2  0  0  0  0
  8  9  1  0  0  0  0
  8 13  1  0  0  0  0
  9 10  1  0  0  0  0
 10 11  1  0  0  0  0
 11 12  1  0  0  0  0
 11 14  1  0  0  0  0
 12 13  1  0  0  0  0
 14 15  2  0  0  0  0
 14 16  1  0  0  0  0
M  END
> <Index>
2772

> <PropertyFieldDistance>
nan

$$$$
530142
BBcorina  12272117083D 1   1.00000     0.00000 
CORINA 4.3.0 0026  30.10.2019
 15 16  0  0  0  0  0  0  0  0999 V2000
  -34.9647    6.9080  -41.8410 C   0  0  0  0  0  0  0  0  0  0  0  0
  -35.6155    6.9511  -40.8247 O   0  0  0  0  0  0  0  0  0  0  0  0
  -35.3854    5.9989  -42.9670 C   0  0  0  0  0  0  0  0  0  0  0  0
  -36.6587    5.2473  -42.5693 C   0  0  0  0  0  0  0  0  0  0  0  0
  -37.0466    4.2814  -43.6913 C   0  0  0  0  0  0  0  0  0  0  0  0
  -35.9495    3.3334  -43.9239 N   0  0  0  0  0  0  0  0  0  0  0  0
  -34.7291    4.0284  -44.3527 C   0  0  0  0  0  0  0  0  0  0  0  0
  -34.2720    4.9866  -43.2505 C   0  0  0  0  0  0  0  0  0  0  0  0
  -36.3188    2.3606  -44.8455 C   0  0  0  0  0  0  0  0  0  0  0  0
  -35.4169    1.3623  -45.2066 C   0  0  0  0  0  0  0  0  0  0  0  0
  -35.7732    0.4382  -46.0783 N   0  0  0  0  0  0  0  0  0  0  0  0
  -36.9807    0.4650  -46.6167 C   0  0  0  0  0  0  0  0  0  0  0  0
  -37.8785    1.4535  -46.2606 C   0  0  0  0  0  0  0  0  0  0  0  0
  -37.5312    2.3804  -45.3840 N   0  0  0  0  0  0  0  0  0  0  0  0
  -33.5169    7.9123  -42.0083 X   0  0  0  0  0  0  0  0  0  0  0  0
  1  2  2  0  0  0  0
  1  3  1  0  0  0  0
  1 15  1  0  0  0  0
  3  4  1  0  0  0  0
  3  8  1  0  0  0  0
  4  5  1  0  0  0  0
  5  6  1  0  0  0  0
  6  7  1  0  0  0  0
  6  9  1  0  0  0  0
  7  8  1  0  0  0  0
  9 10  2  0  0  0  0
  9 14  1  0  0  0  0
 10 11  1  0  0  0  0
 11 12  2  0  0  0  0
 12 13  1  0  0  0  0
 13 14  2  0  0  0  0
M  END
> <Index>
2773

> <PropertyFieldDistance>
nan

$$$$
504640
BBcorina  12272117083D 1   1.00000     0.00000 
CORINA 4.3.0 0026  30.10.2019
 16 17  0  0  0  0  0  0  0  0999 V2000
  -35.6369    7.1614  -42.3349 C   0  0  0  0  0  0  0  0  0  0  0  0
  -36.6005    7.7992  -42.6853 O   0  0  0  0  0  0  0  0  0  0  0  0
  -35.6067    5.6685  -42.5384 C   0  0  0  0  0  0  0  0  0  0  0  0
  -36.9120    5.2179  -43.1989 C   0  0  0  0  0  0  0  0  0  0  0  0
  -36.8907    3.6964  -43.3761 C   0  0  0  0  0  0  0  0  0  0  0  0
  -35.6769    3.3203  -44.1135 N   0  0  0  0  0  0  0  0  0  0  0  0
  -34.3746    3.7791  -43.6115 C   0  0  0  0  0  0  0  0  0  0  0  0
  -34.4223    5.3000  -43.4348 C   0  0  0  0  0  0  0  0  0  0  0  0
  -35.7567    2.5683  -45.2293 C   0  0  0  0  0  0  0  0  0  0  0  0
  -34.7597    2.3572  -45.8928 O   0  0  0  0  0  0  0  0  0  0  0  0
  -37.0522    2.0018  -45.6450 C   0  0  0  0  0  0  0  0  0  0  0  0
  -37.4963    1.7120  -47.0162 C   0  0  0  0  0  0  0  0  0  0  0  0
  -38.7355    1.2097  -46.9040 C   0  0  0  0  0  0  0  0  0  0  0  0
  -39.0779    1.1693  -45.6070 O   0  0  0  0  0  0  0  0  0  0  0  0
  -38.0874    1.6311  -44.8376 C   0  0  0  0  0  0  0  0  0  0  0  0
  -34.2598    7.9800  -41.5823 X   0  0  0  0  0  0  0  0  0  0  0  0
  1  2  2  0  0  0  0
  1  3  1  0  0  0  0
  1 16  1  0  0  0  0
  3  4  1  0  0  0  0
  3  8  1  0  0  0  0
  4  5  1  0  0  0  0
  5  6  1  0  0  0  0
  6  7  1  0  0  0  0
  6  9  1  0  0  0  0
  7  8  1  0  0  0  0
  9 10  2  0  0  0  0
  9 11  1  0  0  0  0
 11 12  1  0  0  0  0
 11 15  2  0  0  0  0
 12 13  2  0  0  0  0
 13 14  1  0  0  0  0
 14 15  1  0  0  0  0
M  END
> <Index>
2784

> <PropertyFieldDistance>
nan

$$$$
952862
BBcorina  12272117083D 1   1.00000     0.00000 
CORINA 4.3.0 0026  30.10.2019
 19 20  0  0  0  0  0  0  0  0999 V2000
  -38.5535    1.9165  -49.7778 C   0  0  0  0  0  0  0  0  0  0  0  0
  -37.3557    1.4003  -49.0231 C   0  0  0  0  0  0  0  0  0  0  0  0
  -36.6575    0.3066  -49.5004 C   0  0  0  0  0  0  0  0  0  0  0  0
  -35.5577   -0.1702  -48.8107 C   0  0  0  0  0  0  0  0  0  0  0  0
  -35.1539    0.4446  -47.6420 C   0  0  0  0  0  0  0  0  0  0  0  0
  -35.8569    1.5397  -47.1566 C   0  0  0  0  0  0  0  0  0  0  0  0
  -35.4538    2.1614  -45.9694 N   0  0  0  0  0  0  0  0  0  0  0  0
  -36.3730    2.7086  -45.1495 C   0  0  0  0  0  0  0  0  0  0  0  0
  -37.5574    2.5798  -45.3920 O   0  0  0  0  0  0  0  0  0  0  0  0
  -35.9792    3.3986  -44.0608 N   0  0  0  0  0  0  0  0  0  0  0  0
  -36.9663    3.9019  -43.0959 C   0  0  0  0  0  0  0  0  0  0  0  0
  -36.7435    5.4049  -42.9010 C   0  0  0  0  0  0  0  0  0  0  0  0
  -35.2881    5.6526  -42.4981 C   0  0  0  0  0  0  0  0  0  0  0  0
  -34.3586    5.1671  -43.6129 C   0  0  0  0  0  0  0  0  0  0  0  0
  -34.5541    3.6566  -43.8130 C   0  0  0  0  0  0  0  0  0  0  0  0
  -35.0736    7.1272  -42.2724 C   0  0  0  0  0  0  0  0  0  0  0  0
  -34.2624    7.7279  -42.9353 O   0  0  0  0  0  0  0  0  0  0  0  0
  -36.9566    2.0200  -47.8548 C   0  0  0  0  0  0  0  0  0  0  0  0
  -36.0107    7.9786  -41.0355 X   0  0  0  0  0  0  0  0  0  0  0  0
  1  2  1  0  0  0  0
  2  3  2  0  0  0  0
  2 18  1  0  0  0  0
  3  4  1  0  0  0  0
  4  5  2  0  0  0  0
  5  6  1  0  0  0  0
  6  7  1  0  0  0  0
  6 18  2  0  0  0  0
  7  8  1  0  0  0  0
  8  9  2  0  0  0  0
  8 10  1  0  0  0  0
 10 11  1  0  0  0  0
 10 15  1  0  0  0  0
 11 12  1  0  0  0  0
 12 13  1  0  0  0  0
 13 14  1  0  0  0  0
 13 16  1  0  0  0  0
 14 15  1  0  0  0  0
 16 17  2  0  0  0  0
 16 19  1  0  0  0  0
M  END
> <Index>
2818

> <PropertyFieldDistance>
nan

$$$$
999264
BBcorina  12272117083D 1   1.00000     0.00000 
CORINA 4.3.0 0026  30.10.2019
 13 13  0  0  0  0  0  0  0  0999 V2000
  -36.8718    1.1852  -46.9367 C   0  0  0  0  0  0  0  0  0  0  0  0
  -37.0749    2.0476  -45.6893 C   0  0  0  0  0  0  0  0  0  0  0  0
  -35.7373    2.5249  -45.1853 C   0  0  0  0  0  0  0  0  0  0  0  0
  -34.7216    2.2066  -45.7665 O   0  0  0  0  0  0  0  0  0  0  0  0
  -35.6699    3.3054  -44.0886 N   0  0  0  0  0  0  0  0  0  0  0  0
  -36.8917    3.6989  -43.3736 C   0  0  0  0  0  0  0  0  0  0  0  0
  -36.9143    5.2248  -43.2390 C   0  0  0  0  0  0  0  0  0  0  0  0
  -35.6182    5.6936  -42.5739 C   0  0  0  0  0  0  0  0  0  0  0  0
  -34.4242    5.3035  -43.4481 C   0  0  0  0  0  0  0  0  0  0  0  0
  -34.3733    3.7786  -43.5851 C   0  0  0  0  0  0  0  0  0  0  0  0
  -33.1508    5.7938  -42.8083 C   0  0  0  0  0  0  0  0  0  0  0  0
  -33.1940    6.4005  -41.7650 O   0  0  0  0  0  0  0  0  0  0  0  0
  -31.5926    5.4871  -43.5898 X   0  0  0  0  0  0  0  0  0  0  0  0
  1  2  1  0  0  0  0
  2  3  1  0  0  0  0
  3  4  2  0  0  0  0
  3  5  1  0  0  0  0
  5  6  1  0  0  0  0
  5 10  1  0  0  0  0
  6  7  1  0  0  0  0
  7  8  1  0  0  0  0
  8  9  1  0  0  0  0
  9 10  1  0  0  0  0
  9 11  1  0  0  0  0
 11 12  2  0  0  0  0
 11 13  1  0  0  0  0
M  END
> <Index>
2821

> <PropertyFieldDistance>
nan

$$$$
582018
BBcorina  12272117083D 1   1.00000     0.00000 
CORINA 4.3.0 0026  30.10.2019
 14 15  0  0  0  0  0  0  0  0999 V2000
  -33.1509    5.7939  -42.8083 C   0  0  0  0  0  0  0  0  0  0  0  0
  -33.1936    6.3951  -41.7619 O   0  0  0  0  0  0  0  0  0  0  0  0
  -34.4242    5.3035  -43.4481 C   0  0  0  0  0  0  0  0  0  0  0  0
  -35.6183    5.6943  -42.5743 C   0  0  0  0  0  0  0  0  0  0  0  0
  -36.9143    5.2248  -43.2390 C   0  0  0  0  0  0  0  0  0  0  0  0
  -36.8917    3.6990  -43.3736 C   0  0  0  0  0  0  0  0  0  0  0  0
  -35.6699    3.3054  -44.0886 N   0  0  0  0  0  0  0  0  0  0  0  0
  -34.3732    3.7786  -43.5850 C   0  0  0  0  0  0  0  0  0  0  0  0
  -35.7373    2.5249  -45.1852 C   0  0  0  0  0  0  0  0  0  0  0  0
  -34.7215    2.2066  -45.7665 O   0  0  0  0  0  0  0  0  0  0  0  0
  -37.0749    2.0476  -45.6894 C   0  0  0  0  0  0  0  0  0  0  0  0
  -37.0847    1.1628  -46.9375 C   0  0  0  0  0  0  0  0  0  0  0  0
  -37.3848    0.5545  -45.5653 C   0  0  0  0  0  0  0  0  0  0  0  0
  -31.5921    5.4822  -43.5870 X   0  0  0  0  0  0  0  0  0  0  0  0
  1  2  2  0  0  0  0
  1  3  1  0  0  0  0
  1 14  1  0  0  0  0
  3  4  1  0  0  0  0
  3  8  1  0  0  0  0
  4  5  1  0  0  0  0
  5  6  1  0  0  0  0
  6  7  1  0  0  0  0
  7  8  1  0  0  0  0
  7  9  1  0  0  0  0
  9 10  2  0  0  0  0
  9 11  1  0  0  0  0
 11 12  1  0  0  0  0
 11 13  1  0  0  0  0
 12 13  1  0  0  0  0
M  END
> <Index>
2822

> <PropertyFieldDistance>
nan

$$$$
575500
BBcorina  12272117083D 1   1.00000     0.00000 
CORINA 4.3.0 0026  30.10.2019
 12 12  0  0  0  0  0  0  0  0999 V2000
  -35.9985    2.1410  -46.1833 C   0  0  0  0  0  0  0  0  0  0  0  0
  -36.3985    2.0044  -44.7129 C   0  0  0  0  0  0  0  0  0  0  0  0
  -35.6304    0.8417  -44.0813 C   0  0  0  0  0  0  0  0  0  0  0  0
  -36.0778    3.2448  -44.0023 N   0  0  0  0  0  0  0  0  0  0  0  0
  -37.0653    4.0825  -43.3116 C   0  0  0  0  0  0  0  0  0  0  0  0
  -36.3745    5.4488  -43.1053 C   0  0  0  0  0  0  0  0  0  0  0  0
  -34.8797    5.0472  -43.1023 C   0  0  0  0  0  0  0  0  0  0  0  0
  -34.8412    3.7617  -43.8989 C   0  0  0  0  0  0  0  0  0  0  0  0
  -33.8397    3.2666  -44.3710 O   0  0  0  0  0  0  0  0  0  0  0  0
  -36.7685    6.0583  -41.7846 C   0  0  0  0  0  0  0  0  0  0  0  0
  -35.9240    6.3027  -40.9565 O   0  0  0  0  0  0  0  0  0  0  0  0
  -38.4687    6.4159  -41.4469 X   0  0  0  0  0  0  0  0  0  0  0  0
  1  2  1  0  0  0  0
  2  3  1  0  0  0  0
  2  4  1  0  0  0  0
  4  5  1  0  0  0  0
  4  8  1  0  0  0  0
  5  6  1  0  0  0  0
  6  7  1  0  0  0  0
  6 10  1  0  0  0  0
  7  8  1  0  0  0  0
  8  9  2  0  0  0  0
 10 11  2  0  0  0  0
 10 12  1  0  0  0  0
M  END
> <Index>
2859

> <PropertyFieldDistance>
nan

$$$$
576590
BBcorina  12272117083D 1   1.00000     0.00000 
CORINA 4.3.0 0026  30.10.2019
 10 10  0  0  0  0  0  0  0  0999 V2000
  -36.3099    2.2197  -44.9581 C   0  0  0  0  0  0  0  0  0  0  0  0
  -36.0452    3.4349  -44.1840 N   0  0  0  0  0  0  0  0  0  0  0  0
  -37.0871    4.3196  -43.6494 C   0  0  0  0  0  0  0  0  0  0  0  0
  -36.3861    5.1797  -42.5746 C   0  0  0  0  0  0  0  0  0  0  0  0
  -34.9180    5.1552  -43.0595 C   0  0  0  0  0  0  0  0  0  0  0  0
  -34.8169    3.8833  -43.8723 C   0  0  0  0  0  0  0  0  0  0  0  0
  -33.7786    3.3465  -44.1960 O   0  0  0  0  0  0  0  0  0  0  0  0
  -36.5145    4.5498  -41.2116 C   0  0  0  0  0  0  0  0  0  0  0  0
  -35.5242    4.2373  -40.5951 O   0  0  0  0  0  0  0  0  0  0  0  0
  -38.1168    4.2679  -40.5144 X   0  0  0  0  0  0  0  0  0  0  0  0
  1  2  1  0  0  0  0
  2  3  1  0  0  0  0
  2  6  1  0  0  0  0
  3  4  1  0  0  0  0
  4  5  1  0  0  0  0
  4  8  1  0  0  0  0
  5  6  1  0  0  0  0
  6  7  2  0  0  0  0
  8  9  2  0  0  0  0
  8 10  1  0  0  0  0
M  END
> <Index>
2863

> <PropertyFieldDistance>
nan

$$$$
575120
BBcorina  12272117083D 1   1.00000     0.00000 
CORINA 4.3.0 0026  30.10.2019
 11 11  0  0  0  0  0  0  0  0999 V2000
  -36.3557    1.3259  -45.1508 C   0  0  0  0  0  0  0  0  0  0  0  0
  -36.1261    2.7662  -45.6135 C   0  0  0  0  0  0  0  0  0  0  0  0
  -35.9565    3.6334  -44.4451 N   0  0  0  0  0  0  0  0  0  0  0  0
  -37.0556    4.3224  -43.7587 C   0  0  0  0  0  0  0  0  0  0  0  0
  -36.4877    4.7356  -42.3827 C   0  0  0  0  0  0  0  0  0  0  0  0
  -34.9732    4.8161  -42.6763 C   0  0  0  0  0  0  0  0  0  0  0  0
  -34.7742    3.8998  -43.8635 C   0  0  0  0  0  0  0  0  0  0  0  0
  -33.7044    3.4647  -44.2336 O   0  0  0  0  0  0  0  0  0  0  0  0
  -37.0296    6.0755  -41.9560 C   0  0  0  0  0  0  0  0  0  0  0  0
  -36.2742    6.9956  -41.7532 O   0  0  0  0  0  0  0  0  0  0  0  0
  -38.7734    6.3005  -41.7517 X   0  0  0  0  0  0  0  0  0  0  0  0
  1  2  1  0  0  0  0
  2  3  1  0  0  0  0
  3  4  1  0  0  0  0
  3  7  1  0  0  0  0
  4  5  1  0  0  0  0
  5  6  1  0  0  0  0
  5  9  1  0  0  0  0
  6  7  1  0  0  0  0
  7  8  2  0  0  0  0
  9 10  2  0  0  0  0
  9 11  1  0  0  0  0
M  END
> <Index>
2864

> <PropertyFieldDistance>
nan

$$$$
15795852
BBcorina  12272117083D 1   1.00000     0.00000 
CORINA 4.3.0 0026  30.10.2019
 13 13  0  0  0  0  0  0  0  0999 V2000
  -37.1188    0.5611  -46.2338 C   0  0  0  0  0  0  0  0  0  0  0  0
  -37.0873    1.9768  -45.6544 C   0  0  0  0  0  0  0  0  0  0  0  0
  -37.3342    2.9912  -46.7729 C   0  0  0  0  0  0  0  0  0  0  0  0
  -35.7192    2.2385  -45.0213 C   0  0  0  0  0  0  0  0  0  0  0  0
  -35.7060    3.5790  -44.4207 N   0  0  0  0  0  0  0  0  0  0  0  0
  -36.8501    3.7628  -43.5187 C   0  0  0  0  0  0  0  0  0  0  0  0
  -36.8857    5.2113  -43.0264 C   0  0  0  0  0  0  0  0  0  0  0  0
  -35.5788    5.5288  -42.2944 C   0  0  0  0  0  0  0  0  0  0  0  0
  -34.4003    5.2829  -43.2406 C   0  0  0  0  0  0  0  0  0  0  0  0
  -34.4368    3.8323  -43.7268 C   0  0  0  0  0  0  0  0  0  0  0  0
  -33.1070    5.5362  -42.5098 C   0  0  0  0  0  0  0  0  0  0  0  0
  -32.2973    4.6484  -42.3899 O   0  0  0  0  0  0  0  0  0  0  0  0
  -32.7746    7.1352  -41.8274 X   0  0  0  0  0  0  0  0  0  0  0  0
  1  2  1  0  0  0  0
  2  3  1  0  0  0  0
  2  4  1  0  0  0  0
  4  5  1  0  0  0  0
  5  6  1  0  0  0  0
  5 10  1  0  0  0  0
  6  7  1  0  0  0  0
  7  8  1  0  0  0  0
  8  9  1  0  0  0  0
  9 10  1  0  0  0  0
  9 11  1  0  0  0  0
 11 12  2  0  0  0  0
 11 13  1  0  0  0  0
M  END
> <Index>
3084

> <PropertyFieldDistance>
nan

$$$$
490354
BBcorina  12272117083D 1   1.00000     0.00000 
CORINA 4.3.0 0026  30.10.2019
 14 14  0  0  0  0  0  0  0  0999 V2000
  -39.5521    1.5621  -46.6261 C   0  0  0  0  0  0  0  0  0  0  0  0
  -38.0326    1.7256  -46.5550 C   0  0  0  0  0  0  0  0  0  0  0  0
  -37.6818    2.4753  -45.3619 O   0  0  0  0  0  0  0  0  0  0  0  0
  -36.3728    2.7079  -45.1490 C   0  0  0  0  0  0  0  0  0  0  0  0
  -35.5463    2.2957  -45.9386 O   0  0  0  0  0  0  0  0  0  0  0  0
  -35.9794    3.3978  -44.0602 N   0  0  0  0  0  0  0  0  0  0  0  0
  -36.9670    3.9022  -43.0963 C   0  0  0  0  0  0  0  0  0  0  0  0
  -36.7430    5.4051  -42.9017 C   0  0  0  0  0  0  0  0  0  0  0  0
  -35.2877    5.6519  -42.4977 C   0  0  0  0  0  0  0  0  0  0  0  0
  -34.3578    5.1652  -43.6116 C   0  0  0  0  0  0  0  0  0  0  0  0
  -34.5547    3.6596  -43.8142 C   0  0  0  0  0  0  0  0  0  0  0  0
  -32.9264    5.4380  -43.2269 C   0  0  0  0  0  0  0  0  0  0  0  0
  -32.6758    5.9743  -42.1743 O   0  0  0  0  0  0  0  0  0  0  0  0
  -31.6131    4.9790  -44.3212 X   0  0  0  0  0  0  0  0  0  0  0  0
  1  2  1  0  0  0  0
  2  3  1  0  0  0  0
  3  4  1  0  0  0  0
  4  5  2  0  0  0  0
  4  6  1  0  0  0  0
  6  7  1  0  0  0  0
  6 11  1  0  0  0  0
  7  8  1  0  0  0  0
  8  9  1  0  0  0  0
  9 10  1  0  0  0  0
 10 11  1  0  0  0  0
 10 12  1  0  0  0  0
 12 13  2  0  0  0  0
 12 14  1  0  0  0  0
M  END
> <Index>
3104

> <PropertyFieldDistance>
nan

$$$$
745324
BBcorina  12272117083D 1   1.00000     0.00000 
CORINA 4.3.0 0026  30.10.2019
 14 14  0  0  0  0  0  0  0  0999 V2000
  -36.3494    2.3899  -46.3337 C   0  0  0  0  0  0  0  0  0  0  0  0
  -36.2927    2.0844  -44.8356 C   0  0  0  0  0  0  0  0  0  0  0  0
  -35.9162    3.2966  -44.1040 N   0  0  0  0  0  0  0  0  0  0  0  0
  -36.9525    4.2140  -43.6294 C   0  0  0  0  0  0  0  0  0  0  0  0
  -36.5789    4.7835  -42.2637 C   0  0  0  0  0  0  0  0  0  0  0  0
  -35.2265    5.3411  -42.2925 N   0  0  0  0  0  0  0  0  0  0  0  0
  -34.9246    6.5645  -41.5452 C   0  0  0  0  0  0  0  0  0  0  0  0
  -34.4755    6.2044  -40.1524 C   0  0  0  0  0  0  0  0  0  0  0  0
  -34.4139    5.0455  -39.8185 O   0  0  0  0  0  0  0  0  0  0  0  0
  -34.2578    4.7323  -43.0052 C   0  0  0  0  0  0  0  0  0  0  0  0
  -33.1113    5.1258  -42.9467 O   0  0  0  0  0  0  0  0  0  0  0  0
  -34.6158    3.5637  -43.8695 C   0  0  0  0  0  0  0  0  0  0  0  0
  -33.7478    2.8663  -44.3518 O   0  0  0  0  0  0  0  0  0  0  0  0
  -34.0381    7.4801  -39.0060 X   0  0  0  0  0  0  0  0  0  0  0  0
  1  2  1  0  0  0  0
  2  3  1  0  0  0  0
  3  4  1  0  0  0  0
  3 12  1  0  0  0  0
  4  5  1  0  0  0  0
  5  6  1  0  0  0  0
  6  7  1  0  0  0  0
  6 10  1  0  0  0  0
  7  8  1  0  0  0  0
  8  9  2  0  0  0  0
  8 14  1  0  0  0  0
 10 11  2  0  0  0  0
 10 12  1  0  0  0  0
 12 13  2  0  0  0  0
M  END
> <Index>
3268

> <PropertyFieldDistance>
nan

$$$$
859846
BBcorina  12272117083D 1   1.00000     0.00000 
CORINA 4.3.0 0026  30.10.2019
 10 10  0  0  0  0  0  0  0  0999 V2000
  -32.9509    5.5447  -43.2594 C   0  0  0  0  0  0  0  0  0  0  0  0
  -32.8543    6.7470  -43.1997 O   0  0  0  0  0  0  0  0  0  0  0  0
  -34.3002    4.8891  -43.1156 C   0  0  0  0  0  0  0  0  0  0  0  0
  -35.3761    5.9641  -42.9195 C   0  0  0  0  0  0  0  0  0  0  0  0
  -36.7008    5.2691  -42.5950 C   0  0  0  0  0  0  0  0  0  0  0  0
  -36.9560    4.1681  -43.5839 C   0  0  0  0  0  0  0  0  0  0  0  0
  -38.0842    3.7340  -43.6812 O   0  0  0  0  0  0  0  0  0  0  0  0
  -36.0083    3.6426  -44.3613 N   0  0  0  0  0  0  0  0  0  0  0  0
  -34.6221    4.0947  -44.3819 C   0  0  0  0  0  0  0  0  0  0  0  0
  -31.5067    4.5521  -43.5084 X   0  0  0  0  0  0  0  0  0  0  0  0
  1  2  2  0  0  0  0
  1  3  1  0  0  0  0
  1 10  1  0  0  0  0
  3  4  1  0  0  0  0
  3  9  1  0  0  0  0
  4  5  1  0  0  0  0
  5  6  1  0  0  0  0
  6  7  2  0  0  0  0
  6  8  1  0  0  0  0
  8  9  1  0  0  0  0
M  END
> <Index>
3283

> <PropertyFieldDistance>
nan

$$$$
602744
BBcorina  12272117083D 1   1.00000     0.00000 
CORINA 4.3.0 0026  30.10.2019
 11 11  0  0  0  0  0  0  0  0999 V2000
  -36.2207    1.3502  -44.9998 C   0  0  0  0  0  0  0  0  0  0  0  0
  -35.9754    1.1705  -43.8312 O   0  0  0  0  0  0  0  0  0  0  0  0
  -36.2597    2.7507  -45.5549 C   0  0  0  0  0  0  0  0  0  0  0  0
  -35.9689    3.7083  -44.4850 N   0  0  0  0  0  0  0  0  0  0  0  0
  -37.0895    4.2333  -43.7149 C   0  0  0  0  0  0  0  0  0  0  0  0
  -36.5983    4.8120  -42.3852 C   0  0  0  0  0  0  0  0  0  0  0  0
  -35.4480    5.7844  -42.6723 C   0  0  0  0  0  0  0  0  0  0  0  0
  -34.2523    4.9804  -43.1889 C   0  0  0  0  0  0  0  0  0  0  0  0
  -34.6960    4.0490  -44.2803 C   0  0  0  0  0  0  0  0  0  0  0  0
  -33.8515    3.5820  -45.0149 O   0  0  0  0  0  0  0  0  0  0  0  0
  -36.5347   -0.0314  -46.0609 X   0  0  0  0  0  0  0  0  0  0  0  0
  1  2  2  0  0  0  0
  1  3  1  0  0  0  0
  1 11  1  0  0  0  0
  3  4  1  0  0  0  0
  4  5  1  0  0  0  0
  4  9  1  0  0  0  0
  5  6  1  0  0  0  0
  6  7  1  0  0  0  0
  7  8  1  0  0  0  0
  8  9  1  0  0  0  0
  9 10  2  0  0  0  0
M  END
> <Index>
3365

> <PropertyFieldDistance>
nan

$$$$
602790
BBcorina  12272117083D 1   1.00000     0.00000 
CORINA 4.3.0 0026  30.10.2019
 11 11  0  0  0  0  0  0  0  0999 V2000
  -36.3088    2.0333  -46.0929 C   0  0  0  0  0  0  0  0  0  0  0  0
  -36.1879    3.0726  -46.6959 O   0  0  0  0  0  0  0  0  0  0  0  0
  -36.1889    2.0153  -44.5908 C   0  0  0  0  0  0  0  0  0  0  0  0
  -35.9268    3.3726  -44.1055 N   0  0  0  0  0  0  0  0  0  0  0  0
  -37.0538    4.2426  -43.7654 C   0  0  0  0  0  0  0  0  0  0  0  0
  -36.6187    5.2247  -42.6724 C   0  0  0  0  0  0  0  0  0  0  0  0
  -35.3798    5.9820  -43.1620 C   0  0  0  0  0  0  0  0  0  0  0  0
  -34.3436    5.0176  -43.5350 N   0  0  0  0  0  0  0  0  0  0  0  0
  -34.6590    3.7948  -43.9873 C   0  0  0  0  0  0  0  0  0  0  0  0
  -33.7599    3.0375  -44.2981 O   0  0  0  0  0  0  0  0  0  0  0  0
  -36.6270    0.5312  -46.9733 X   0  0  0  0  0  0  0  0  0  0  0  0
  1  2  2  0  0  0  0
  1  3  1  0  0  0  0
  1 11  1  0  0  0  0
  3  4  1  0  0  0  0
  4  5  1  0  0  0  0
  4  9  1  0  0  0  0
  5  6  1  0  0  0  0
  6  7  1  0  0  0  0
  7  8  1  0  0  0  0
  8  9  1  0  0  0  0
  9 10  2  0  0  0  0
M  END
> <Index>
3409

> <PropertyFieldDistance>
nan

$$$$
654266
BBcorina  12272117083D 1   1.00000     0.00000 
CORINA 4.3.0 0026  30.10.2019
 14 14  0  0  0  0  0  0  0  0999 V2000
  -35.4379   -0.0102  -45.0030 C   0  0  0  0  0  0  0  0  0  0  0  0
  -35.2151    1.4283  -44.8384 N   0  0  0  0  0  0  0  0  0  0  0  0
  -33.8759    1.9892  -45.0335 C   0  0  0  0  0  0  0  0  0  0  0  0
  -36.2422    2.2357  -44.5073 C   0  0  0  0  0  0  0  0  0  0  0  0
  -37.3707    1.7878  -44.4410 O   0  0  0  0  0  0  0  0  0  0  0  0
  -36.0193    3.5408  -44.2552 N   0  0  0  0  0  0  0  0  0  0  0  0
  -37.1076    4.4090  -43.7855 C   0  0  0  0  0  0  0  0  0  0  0  0
  -36.6604    5.1074  -42.4976 C   0  0  0  0  0  0  0  0  0  0  0  0
  -35.3388    5.8368  -42.7501 C   0  0  0  0  0  0  0  0  0  0  0  0
  -34.2632    4.8238  -43.1488 C   0  0  0  0  0  0  0  0  0  0  0  0
  -34.6820    4.1209  -44.4387 C   0  0  0  0  0  0  0  0  0  0  0  0
  -34.9128    6.5531  -41.4944 C   0  0  0  0  0  0  0  0  0  0  0  0
  -33.8587    6.2806  -40.9719 O   0  0  0  0  0  0  0  0  0  0  0  0
  -35.9575    7.7936  -40.7854 X   0  0  0  0  0  0  0  0  0  0  0  0
  1  2  1  0  0  0  0
  2  3  1  0  0  0  0
  2  4  1  0  0  0  0
  4  5  2  0  0  0  0
  4  6  1  0  0  0  0
  6  7  1  0  0  0  0
  6 11  1  0  0  0  0
  7  8  1  0  0  0  0
  8  9  1  0  0  0  0
  9 10  1  0  0  0  0
  9 12  1  0  0  0  0
 10 11  1  0  0  0  0
 12 13  2  0  0  0  0
 12 14  1  0  0  0  0
M  END
> <Index>
3458

> <PropertyFieldDistance>
nan

$$$$
754562
BBcorina  12272117083D 1   1.00000     0.00000 
CORINA 4.3.0 0026  30.10.2019
 16 17  0  0  0  0  0  0  0  0999 V2000
  -35.0723    7.1262  -42.2722 C   0  0  0  0  0  0  0  0  0  0  0  0
  -35.9880    7.8996  -42.4194 O   0  0  0  0  0  0  0  0  0  0  0  0
  -35.2878    5.6518  -42.4977 C   0  0  0  0  0  0  0  0  0  0  0  0
  -36.7430    5.4051  -42.9017 C   0  0  0  0  0  0  0  0  0  0  0  0
  -36.9669    3.9022  -43.0964 C   0  0  0  0  0  0  0  0  0  0  0  0
  -35.9794    3.3979  -44.0602 N   0  0  0  0  0  0  0  0  0  0  0  0
  -34.5547    3.6596  -43.8142 C   0  0  0  0  0  0  0  0  0  0  0  0
  -34.3578    5.1652  -43.6116 C   0  0  0  0  0  0  0  0  0  0  0  0
  -36.3728    2.7078  -45.1490 C   0  0  0  0  0  0  0  0  0  0  0  0
  -35.5798    2.4759  -46.0411 O   0  0  0  0  0  0  0  0  0  0  0  0
  -37.6452    2.2749  -45.2491 N   0  0  0  0  0  0  0  0  0  0  0  0
  -38.7470    2.6366  -44.3452 C   0  0  0  0  0  0  0  0  0  0  0  0
  -40.0044    1.8863  -44.8325 C   0  0  0  0  0  0  0  0  0  0  0  0
  -39.4112    0.7039  -45.6432 C   0  0  0  0  0  0  0  0  0  0  0  0
  -38.1642    1.3653  -46.2867 C   0  0  0  0  0  0  0  0  0  0  0  0
  -33.4772    7.7242  -41.7917 X   0  0  0  0  0  0  0  0  0  0  0  0
  1  2  2  0  0  0  0
  1  3  1  0  0  0  0
  1 16  1  0  0  0  0
  3  4  1  0  0  0  0
  3  8  1  0  0  0  0
  4  5  1  0  0  0  0
  5  6  1  0  0  0  0
  6  7  1  0  0  0  0
  6  9  1  0  0  0  0
  7  8  1  0  0  0  0
  9 10  2  0  0  0  0
  9 11  1  0  0  0  0
 11 12  1  0  0  0  0
 11 15  1  0  0  0  0
 12 13  1  0  0  0  0
 13 14  1  0  0  0  0
 14 15  1  0  0  0  0
M  END
> <Index>
3459

> <PropertyFieldDistance>
nan

$$$$
651888
BBcorina  12272117083D 1   1.00000     0.00000 
CORINA 4.3.0 0026  30.10.2019
 16 16  0  0  0  0  0  0  0  0999 V2000
  -36.9242    2.4957  -48.2788 C   0  0  0  0  0  0  0  0  0  0  0  0
  -35.9289    1.7842  -47.3600 C   0  0  0  0  0  0  0  0  0  0  0  0
  -35.5829    2.6636  -46.2405 N   0  0  0  0  0  0  0  0  0  0  0  0
  -34.3786    3.4950  -46.3074 C   0  0  0  0  0  0  0  0  0  0  0  0
  -33.1396    2.6120  -46.1466 C   0  0  0  0  0  0  0  0  0  0  0  0
  -36.3725    2.7077  -45.1492 C   0  0  0  0  0  0  0  0  0  0  0  0
  -37.4398    2.1251  -45.1471 O   0  0  0  0  0  0  0  0  0  0  0  0
  -35.9792    3.3976  -44.0603 N   0  0  0  0  0  0  0  0  0  0  0  0
  -36.9669    3.9027  -43.0970 C   0  0  0  0  0  0  0  0  0  0  0  0
  -36.7441    5.4054  -42.8999 C   0  0  0  0  0  0  0  0  0  0  0  0
  -35.2876    5.6525  -42.4991 C   0  0  0  0  0  0  0  0  0  0  0  0
  -34.3575    5.1650  -43.6125 C   0  0  0  0  0  0  0  0  0  0  0  0
  -34.5545    3.6593  -43.8142 C   0  0  0  0  0  0  0  0  0  0  0  0
  -35.0722    7.1271  -42.2747 C   0  0  0  0  0  0  0  0  0  0  0  0
  -35.9877    7.9005  -42.4239 O   0  0  0  0  0  0  0  0  0  0  0  0
  -33.4777    7.7254  -41.7928 X   0  0  0  0  0  0  0  0  0  0  0  0
  1  2  1  0  0  0  0
  2  3  1  0  0  0  0
  3  4  1  0  0  0  0
  3  6  1  0  0  0  0
  4  5  1  0  0  0  0
  6  7  2  0  0  0  0
  6  8  1  0  0  0  0
  8  9  1  0  0  0  0
  8 13  1  0  0  0  0
  9 10  1  0  0  0  0
 10 11  1  0  0  0  0
 11 12  1  0  0  0  0
 11 14  1  0  0  0  0
 12 13  1  0  0  0  0
 14 15  2  0  0  0  0
 14 16  1  0  0  0  0
M  END
> <Index>
3460

> <PropertyFieldDistance>
nan

$$$$
654274
BBcorina  12272117083D 1   1.00000     0.00000 
CORINA 4.3.0 0026  30.10.2019
 15 16  0  0  0  0  0  0  0  0999 V2000
  -35.0719    7.1268  -42.2741 C   0  0  0  0  0  0  0  0  0  0  0  0
  -35.9870    7.9006  -42.4231 O   0  0  0  0  0  0  0  0  0  0  0  0
  -35.2875    5.6524  -42.4989 C   0  0  0  0  0  0  0  0  0  0  0  0
  -36.7440    5.4054  -42.8997 C   0  0  0  0  0  0  0  0  0  0  0  0
  -36.9670    3.9027  -43.0971 C   0  0  0  0  0  0  0  0  0  0  0  0
  -35.9792    3.3978  -44.0605 N   0  0  0  0  0  0  0  0  0  0  0  0
  -34.5545    3.6594  -43.8143 C   0  0  0  0  0  0  0  0  0  0  0  0
  -34.3574    5.1651  -43.6123 C   0  0  0  0  0  0  0  0  0  0  0  0
  -36.3725    2.7073  -45.1491 C   0  0  0  0  0  0  0  0  0  0  0  0
  -37.5444    2.4178  -45.2947 O   0  0  0  0  0  0  0  0  0  0  0  0
  -35.4668    2.3378  -46.0763 N   0  0  0  0  0  0  0  0  0  0  0  0
  -35.9076    1.6860  -47.3120 C   0  0  0  0  0  0  0  0  0  0  0  0
  -35.0007    1.8090  -48.5380 C   0  0  0  0  0  0  0  0  0  0  0  0
  -35.1080    0.4746  -47.7958 C   0  0  0  0  0  0  0  0  0  0  0  0
  -33.4773    7.7247  -41.7917 X   0  0  0  0  0  0  0  0  0  0  0  0
  1  2  2  0  0  0  0
  1  3  1  0  0  0  0
  1 15  1  0  0  0  0
  3  4  1  0  0  0  0
  3  8  1  0  0  0  0
  4  5  1  0  0  0  0
  5  6  1  0  0  0  0
  6  7  1  0  0  0  0
  6  9  1  0  0  0  0
  7  8  1  0  0  0  0
  9 10  2  0  0  0  0
  9 11  1  0  0  0  0
 11 12  1  0  0  0  0
 12 13  1  0  0  0  0
 12 14  1  0  0  0  0
 13 14  1  0  0  0  0
M  END
> <Index>
3461

> <PropertyFieldDistance>
nan

$$$$
651896
BBcorina  12272117083D 1   1.00000     0.00000 
CORINA 4.3.0 0026  30.10.2019
 16 16  0  0  0  0  0  0  0  0999 V2000
  -37.5861    0.0894  -46.4897 C   0  0  0  0  0  0  0  0  0  0  0  0
  -38.0845    1.5345  -46.4262 C   0  0  0  0  0  0  0  0  0  0  0  0
  -37.6046    2.1626  -45.1926 N   0  0  0  0  0  0  0  0  0  0  0  0
  -38.4638    2.1982  -44.0065 C   0  0  0  0  0  0  0  0  0  0  0  0
  -39.5953    3.2042  -44.2263 C   0  0  0  0  0  0  0  0  0  0  0  0
  -36.3729    2.7078  -45.1490 C   0  0  0  0  0  0  0  0  0  0  0  0
  -35.6165    2.5772  -46.0921 O   0  0  0  0  0  0  0  0  0  0  0  0
  -35.9794    3.3978  -44.0602 N   0  0  0  0  0  0  0  0  0  0  0  0
  -36.9670    3.9021  -43.0964 C   0  0  0  0  0  0  0  0  0  0  0  0
  -36.7430    5.4051  -42.9017 C   0  0  0  0  0  0  0  0  0  0  0  0
  -35.2877    5.6518  -42.4977 C   0  0  0  0  0  0  0  0  0  0  0  0
  -34.3578    5.1652  -43.6116 C   0  0  0  0  0  0  0  0  0  0  0  0
  -34.5547    3.6596  -43.8142 C   0  0  0  0  0  0  0  0  0  0  0  0
  -32.9265    5.4380  -43.2269 C   0  0  0  0  0  0  0  0  0  0  0  0
  -32.6758    5.9742  -42.1743 O   0  0  0  0  0  0  0  0  0  0  0  0
  -31.6132    4.9790  -44.3211 X   0  0  0  0  0  0  0  0  0  0  0  0
  1  2  1  0  0  0  0
  2  3  1  0  0  0  0
  3  4  1  0  0  0  0
  3  6  1  0  0  0  0
  4  5  1  0  0  0  0
  6  7  2  0  0  0  0
  6  8  1  0  0  0  0
  8  9  1  0  0  0  0
  8 13  1  0  0  0  0
  9 10  1  0  0  0  0
 10 11  1  0  0  0  0
 11 12  1  0  0  0  0
 12 13  1  0  0  0  0
 12 14  1  0  0  0  0
 14 15  2  0  0  0  0
 14 16  1  0  0  0  0
M  END
> <Index>
3462

> <PropertyFieldDistance>
nan

$$$$
846946
BBcorina  12272117083D 1   1.00000     0.00000 
CORINA 4.3.0 0026  30.10.2019
 15 16  0  0  0  0  0  0  0  0999 V2000
  -36.3504    2.3103  -44.9256 C   0  0  0  0  0  0  0  0  0  0  0  0
  -35.9985    3.4930  -44.1360 N   0  0  0  0  0  0  0  0  0  0  0  0
  -36.9613    4.1432  -43.4596 C   0  0  0  0  0  0  0  0  0  0  0  0
  -38.1093    3.7397  -43.5136 O   0  0  0  0  0  0  0  0  0  0  0  0
  -36.6511    5.3272  -42.6598 C   0  0  0  0  0  0  0  0  0  0  0  0
  -35.3615    5.7786  -42.6002 C   0  0  0  0  0  0  0  0  0  0  0  0
  -35.0150    6.9720  -41.8016 C   0  0  0  0  0  0  0  0  0  0  0  0
  -33.8583    7.2942  -41.6674 O   0  0  0  0  0  0  0  0  0  0  0  0
  -34.3265    5.0482  -43.3502 C   0  0  0  0  0  0  0  0  0  0  0  0
  -32.9945    5.4695  -43.3218 C   0  0  0  0  0  0  0  0  0  0  0  0
  -32.0479    4.7790  -44.0248 C   0  0  0  0  0  0  0  0  0  0  0  0
  -32.3983    3.6606  -44.7683 C   0  0  0  0  0  0  0  0  0  0  0  0
  -33.7055    3.2271  -44.8102 C   0  0  0  0  0  0  0  0  0  0  0  0
  -34.6868    3.9158  -44.1019 C   0  0  0  0  0  0  0  0  0  0  0  0
  -36.2944    7.9301  -41.0413 X   0  0  0  0  0  0  0  0  0  0  0  0
  1  2  1  0  0  0  0
  2  3  1  0  0  0  0
  2 14  1  0  0  0  0
  3  4  2  0  0  0  0
  3  5  1  0  0  0  0
  5  6  2  0  0  0  0
  6  7  1  0  0  0  0
  6  9  1  0  0  0  0
  7  8  2  0  0  0  0
  7 15  1  0  0  0  0
  9 10  2  0  0  0  0
  9 14  1  0  0  0  0
 10 11  1  0  0  0  0
 11 12  2  0  0  0  0
 12 13  1  0  0  0  0
 13 14  2  0  0  0  0
M  END
> <Index>
3497

> <PropertyFieldDistance>
nan

$$$$
7941828
BBcorina  12272117083D 1   1.00000     0.00000 
CORINA 4.3.0 0026  30.10.2019
  9  9  0  0  0  0  0  0  0  0999 V2000
  -35.7701    1.6420  -45.8221 C   0  0  0  0  0  0  0  0  0  0  0  0
  -34.8444    1.2138  -45.1756 O   0  0  0  0  0  0  0  0  0  0  0  0
  -36.6285    2.7493  -45.2671 C   0  0  0  0  0  0  0  0  0  0  0  0
  -36.1370    3.1296  -43.9360 N   0  0  0  0  0  0  0  0  0  0  0  0
  -37.0842    4.0366  -43.2622 C   0  0  0  0  0  0  0  0  0  0  0  0
  -36.3117    5.3221  -42.8984 C   0  0  0  0  0  0  0  0  0  0  0  0
  -34.8328    4.8451  -42.8817 C   0  0  0  0  0  0  0  0  0  0  0  0
  -34.8244    3.8037  -44.0285 C   0  0  0  0  0  0  0  0  0  0  0  0
  -36.1187    0.9691  -47.4216 X   0  0  0  0  0  0  0  0  0  0  0  0
  1  2  2  0  0  0  0
  1  3  1  0  0  0  0
  1  9  1  0  0  0  0
  3  4  1  0  0  0  0
  4  5  1  0  0  0  0
  4  8  1  0  0  0  0
  5  6  1  0  0  0  0
  6  7  1  0  0  0  0
  7  8  1  0  0  0  0
M  END
> <Index>
3579

> <PropertyFieldDistance>
nan

$$$$
2531232
BBcorina  12272117083D 1   1.00000     0.00000 
CORINA 4.3.0 0026  30.10.2019
 11 11  0  0  0  0  0  0  0  0999 V2000
  -35.5896    1.5866  -45.6372 C   0  0  0  0  0  0  0  0  0  0  0  0
  -36.6723    2.5249  -45.1003 C   0  0  0  0  0  0  0  0  0  0  0  0
  -36.1071    3.3676  -44.0380 N   0  0  0  0  0  0  0  0  0  0  0  0
  -37.0858    4.3639  -43.5791 C   0  0  0  0  0  0  0  0  0  0  0  0
  -36.4780    5.1790  -42.4344 C   0  0  0  0  0  0  0  0  0  0  0  0
  -35.2598    5.7817  -42.8796 O   0  0  0  0  0  0  0  0  0  0  0  0
  -34.2836    4.8401  -43.3331 C   0  0  0  0  0  0  0  0  0  0  0  0
  -34.8692    4.0216  -44.4868 C   0  0  0  0  0  0  0  0  0  0  0  0
  -37.8114    1.7107  -44.5431 C   0  0  0  0  0  0  0  0  0  0  0  0
  -38.1237    1.8248  -43.3821 O   0  0  0  0  0  0  0  0  0  0  0  0
  -38.6963    0.5928  -45.5919 X   0  0  0  0  0  0  0  0  0  0  0  0
  1  2  1  0  0  0  0
  2  3  1  0  0  0  0
  2  9  1  0  0  0  0
  3  4  1  0  0  0  0
  3  8  1  0  0  0  0
  4  5  1  0  0  0  0
  5  6  1  0  0  0  0
  6  7  1  0  0  0  0
  7  8  1  0  0  0  0
  9 10  2  0  0  0  0
  9 11  1  0  0  0  0
M  END
> <Index>
3591

> <PropertyFieldDistance>
nan

$$$$
16784120
BBcorina  12272117083D 1   1.00000     0.00000 
CORINA 4.3.0 0026  30.10.2019
 12 12  0  0  0  0  0  0  0  0999 V2000
  -36.8670    0.7691  -46.5641 C   0  0  0  0  0  0  0  0  0  0  0  0
  -36.1732   -0.1072  -46.1068 O   0  0  0  0  0  0  0  0  0  0  0  0
  -36.8295    2.1507  -45.9632 C   0  0  0  0  0  0  0  0  0  0  0  0
  -35.8393    2.1729  -44.7971 C   0  0  0  0  0  0  0  0  0  0  0  0
  -35.7895    3.5241  -44.2228 N   0  0  0  0  0  0  0  0  0  0  0  0
  -36.9260    3.7828  -43.4514 C   0  0  0  0  0  0  0  0  0  0  0  0
  -37.0044    5.2652  -43.0260 C   0  0  0  0  0  0  0  0  0  0  0  0
  -36.0465    5.5008  -41.8860 C   0  0  0  0  0  0  0  0  0  0  0  0
  -34.6636    5.9862  -42.3645 C   0  0  0  0  0  0  0  0  0  0  0  0
  -34.1902    5.2301  -43.6176 C   0  0  0  0  0  0  0  0  0  0  0  0
  -34.5064    3.7580  -43.5310 C   0  0  0  0  0  0  0  0  0  0  0  0
  -37.9279    0.4310  -47.9400 X   0  0  0  0  0  0  0  0  0  0  0  0
  1  2  2  0  0  0  0
  1  3  1  0  0  0  0
  1 12  1  0  0  0  0
  3  4  1  0  0  0  0
  4  5  1  0  0  0  0
  5  6  1  0  0  0  0
  5 11  1  0  0  0  0
  6  7  1  0  0  0  0
  7  8  1  0  0  0  0
  8  9  1  0  0  0  0
  9 10  1  0  0  0  0
 10 11  1  0  0  0  0
M  END
> <Index>
3593

> <PropertyFieldDistance>
nan

$$$$
7941832
BBcorina  12272117083D 1   1.00000     0.00000 
CORINA 4.3.0 0026  30.10.2019
 10 10  0  0  0  0  0  0  0  0999 V2000
  -36.8990    1.5226  -45.2084 C   0  0  0  0  0  0  0  0  0  0  0  0
  -37.3787    1.3606  -44.1120 O   0  0  0  0  0  0  0  0  0  0  0  0
  -35.8568    2.5892  -45.4247 C   0  0  0  0  0  0  0  0  0  0  0  0
  -35.7086    3.3849  -44.1988 N   0  0  0  0  0  0  0  0  0  0  0  0
  -36.9310    4.1515  -43.9173 C   0  0  0  0  0  0  0  0  0  0  0  0
  -36.7554    4.9174  -42.6034 C   0  0  0  0  0  0  0  0  0  0  0  0
  -35.6003    5.7555  -42.6966 O   0  0  0  0  0  0  0  0  0  0  0  0
  -34.3915    5.0414  -42.9694 C   0  0  0  0  0  0  0  0  0  0  0  0
  -34.5432    4.2767  -44.2871 C   0  0  0  0  0  0  0  0  0  0  0  0
  -37.4256    0.5120  -46.5628 X   0  0  0  0  0  0  0  0  0  0  0  0
  1  2  2  0  0  0  0
  1  3  1  0  0  0  0
  1 10  1  0  0  0  0
  3  4  1  0  0  0  0
  4  5  1  0  0  0  0
  4  9  1  0  0  0  0
  5  6  1  0  0  0  0
  6  7  1  0  0  0  0
  7  8  1  0  0  0  0
  8  9  1  0  0  0  0
M  END
> <Index>
3594

> <PropertyFieldDistance>
nan

$$$$
16784122
BBcorina  12272117083D 1   1.00000     0.00000 
CORINA 4.3.0 0026  30.10.2019
 10 10  0  0  0  0  0  0  0  0999 V2000
  -36.8957    1.5228  -45.1821 C   0  0  0  0  0  0  0  0  0  0  0  0
  -37.4566    1.4514  -44.1150 O   0  0  0  0  0  0  0  0  0  0  0  0
  -35.8561    2.5880  -45.4173 C   0  0  0  0  0  0  0  0  0  0  0  0
  -35.7092    3.4050  -44.2052 N   0  0  0  0  0  0  0  0  0  0  0  0
  -36.9367    4.1622  -43.9291 C   0  0  0  0  0  0  0  0  0  0  0  0
  -36.8007    4.8852  -42.5872 C   0  0  0  0  0  0  0  0  0  0  0  0
  -35.5971    5.8303  -42.6420 C   0  0  0  0  0  0  0  0  0  0  0  0
  -34.3398    5.0239  -42.9788 C   0  0  0  0  0  0  0  0  0  0  0  0
  -34.5472    4.2968  -44.3093 C   0  0  0  0  0  0  0  0  0  0  0  0
  -37.2949    0.3761  -46.4700 X   0  0  0  0  0  0  0  0  0  0  0  0
  1  2  2  0  0  0  0
  1  3  1  0  0  0  0
  1 10  1  0  0  0  0
  3  4  1  0  0  0  0
  4  5  1  0  0  0  0
  4  9  1  0  0  0  0
  5  6  1  0  0  0  0
  6  7  1  0  0  0  0
  7  8  1  0  0  0  0
  8  9  1  0  0  0  0
M  END
> <Index>
3595

> <PropertyFieldDistance>
nan

$$$$
7941834
BBcorina  12272117083D 1   1.00000     0.00000 
CORINA 4.3.0 0026  30.10.2019
 12 12  0  0  0  0  0  0  0  0999 V2000
  -37.1305    0.7780  -44.0821 C   0  0  0  0  0  0  0  0  0  0  0  0
  -37.0724    1.7079  -45.2957 C   0  0  0  0  0  0  0  0  0  0  0  0
  -35.7347    2.4506  -45.3056 C   0  0  0  0  0  0  0  0  0  0  0  0
  -35.6565    3.3343  -44.1348 N   0  0  0  0  0  0  0  0  0  0  0  0
  -36.9018    4.0996  -43.9683 C   0  0  0  0  0  0  0  0  0  0  0  0
  -36.7990    4.9605  -42.7064 C   0  0  0  0  0  0  0  0  0  0  0  0
  -35.6511    5.8078  -42.8046 O   0  0  0  0  0  0  0  0  0  0  0  0
  -34.4217    5.0953  -42.9668 C   0  0  0  0  0  0  0  0  0  0  0  0
  -34.4993    4.2358  -44.2315 C   0  0  0  0  0  0  0  0  0  0  0  0
  -37.2053    0.8954  -46.5579 C   0  0  0  0  0  0  0  0  0  0  0  0
  -36.3213    0.9089  -47.3805 O   0  0  0  0  0  0  0  0  0  0  0  0
  -38.6570   -0.0787  -46.8347 X   0  0  0  0  0  0  0  0  0  0  0  0
  1  2  1  0  0  0  0
  2  3  1  0  0  0  0
  2 10  1  0  0  0  0
  3  4  1  0  0  0  0
  4  5  1  0  0  0  0
  4  9  1  0  0  0  0
  5  6  1  0  0  0  0
  6  7  1  0  0  0  0
  7  8  1  0  0  0  0
  8  9  1  0  0  0  0
 10 11  2  0  0  0  0
 10 12  1  0  0  0  0
M  END
> <Index>
3598

> <PropertyFieldDistance>
nan

$$$$
3048476
BBcorina  12272117083D 1   1.00000     0.00000 
CORINA 4.3.0 0026  30.10.2019
  9  9  0  0  0  0  0  0  0  0999 V2000
  -33.2264    3.2814  -43.9444 C   0  0  0  0  0  0  0  0  0  0  0  0
  -32.8501    3.9862  -44.8499 O   0  0  0  0  0  0  0  0  0  0  0  0
  -34.6397    2.7585  -43.9337 C   0  0  0  0  0  0  0  0  0  0  0  0
  -35.3592    3.2538  -42.6754 C   0  0  0  0  0  0  0  0  0  0  0  0
  -36.8167    2.7800  -42.7157 C   0  0  0  0  0  0  0  0  0  0  0  0
  -37.4756    3.2875  -44.0011 C   0  0  0  0  0  0  0  0  0  0  0  0
  -36.7382    2.8164  -45.1309 O   0  0  0  0  0  0  0  0  0  0  0  0
  -35.3827    3.2669  -45.1720 C   0  0  0  0  0  0  0  0  0  0  0  0
  -32.1178    2.8625  -42.6296 X   0  0  0  0  0  0  0  0  0  0  0  0
  1  2  2  0  0  0  0
  1  3  1  0  0  0  0
  1  9  1  0  0  0  0
  3  4  1  0  0  0  0
  3  8  1  0  0  0  0
  4  5  1  0  0  0  0
  5  6  1  0  0  0  0
  6  7  1  0  0  0  0
  7  8  1  0  0  0  0
M  END
> <Index>
3661

> <PropertyFieldDistance>
nan

$$$$
12852310
BBcorina  12272117083D 1   1.00000     0.00000 
CORINA 4.3.0 0026  30.10.2019
 10 10  0  0  0  0  0  0  0  0999 V2000
  -33.5496    4.7264  -43.4230 C   0  0  0  0  0  0  0  0  0  0  0  0
  -32.5773    4.1684  -42.9742 O   0  0  0  0  0  0  0  0  0  0  0  0
  -34.8957    4.0505  -43.3744 C   0  0  0  0  0  0  0  0  0  0  0  0
  -35.4522    3.9795  -44.7857 C   0  0  0  0  0  0  0  0  0  0  0  0
  -36.8956    3.4713  -44.7747 C   0  0  0  0  0  0  0  0  0  0  0  0
  -36.8750    1.9577  -44.7830 C   0  0  0  0  0  0  0  0  0  0  0  0
  -36.5092    1.3022  -43.7275 C   0  0  0  0  0  0  0  0  0  0  0  0
  -36.0971    2.0412  -42.4724 C   0  0  0  0  0  0  0  0  0  0  0  0
  -34.7337    2.6926  -42.7144 C   0  0  0  0  0  0  0  0  0  0  0  0
  -33.3939    6.3380  -44.1381 X   0  0  0  0  0  0  0  0  0  0  0  0
  1  2  2  0  0  0  0
  1  3  1  0  0  0  0
  1 10  1  0  0  0  0
  3  4  1  0  0  0  0
  3  9  1  0  0  0  0
  4  5  1  0  0  0  0
  5  6  1  0  0  0  0
  6  7  2  0  0  0  0
  7  8  1  0  0  0  0
  8  9  1  0  0  0  0
M  END
> <Index>
3663

> <PropertyFieldDistance>
nan

$$$$
1322214
BBcorina  12272117083D 1   1.00000     0.00000 
CORINA 4.3.0 0026  30.10.2019
 16 17  0  0  0  0  0  0  0  0999 V2000
  -34.6376    6.6245  -41.7109 C   0  0  0  0  0  0  0  0  0  0  0  0
  -33.5291    6.3493  -41.3192 O   0  0  0  0  0  0  0  0  0  0  0  0
  -35.2346    5.8725  -42.8725 C   0  0  0  0  0  0  0  0  0  0  0  0
  -36.5244    5.1793  -42.4246 C   0  0  0  0  0  0  0  0  0  0  0  0
  -37.0941    4.3693  -43.5915 C   0  0  0  0  0  0  0  0  0  0  0  0
  -36.1068    3.3727  -44.0255 N   0  0  0  0  0  0  0  0  0  0  0  0
  -36.6704    2.4856  -45.0517 C   0  0  0  0  0  0  0  0  0  0  0  0
  -35.5713    1.6435  -45.6464 C   0  0  0  0  0  0  0  0  0  0  0  0
  -35.2602    0.4180  -45.0876 C   0  0  0  0  0  0  0  0  0  0  0  0
  -34.2525   -0.3549  -45.6337 C   0  0  0  0  0  0  0  0  0  0  0  0
  -33.5560    0.0977  -46.7386 C   0  0  0  0  0  0  0  0  0  0  0  0
  -33.8662    1.3238  -47.2966 C   0  0  0  0  0  0  0  0  0  0  0  0
  -34.8744    2.0963  -46.7511 C   0  0  0  0  0  0  0  0  0  0  0  0
  -34.8772    4.0170  -44.5045 C   0  0  0  0  0  0  0  0  0  0  0  0
  -34.2413    4.8164  -43.3649 C   0  0  0  0  0  0  0  0  0  0  0  0
  -35.5615    7.9112  -40.9210 X   0  0  0  0  0  0  0  0  0  0  0  0
  1  2  2  0  0  0  0
  1  3  1  0  0  0  0
  1 16  1  0  0  0  0
  3  4  1  0  0  0  0
  3 15  1  0  0  0  0
  4  5  1  0  0  0  0
  5  6  1  0  0  0  0
  6  7  1  0  0  0  0
  6 14  1  0  0  0  0
  7  8  1  0  0  0  0
  8  9  2  0  0  0  0
  8 13  1  0  0  0  0
  9 10  1  0  0  0  0
 10 11  2  0  0  0  0
 11 12  1  0  0  0  0
 12 13  2  0  0  0  0
 14 15  1  0  0  0  0
M  END
> <Index>
3666

> <PropertyFieldDistance>
nan

$$$$
4824936
BBcorina  12272117083D 1   1.00000     0.00000 
CORINA 4.3.0 0026  30.10.2019
 12 12  0  0  0  0  0  0  0  0999 V2000
  -35.6473    1.6858  -45.8122 C   0  0  0  0  0  0  0  0  0  0  0  0
  -36.6628    2.6990  -45.2800 C   0  0  0  0  0  0  0  0  0  0  0  0
  -36.1366    3.3248  -44.0596 N   0  0  0  0  0  0  0  0  0  0  0  0
  -37.0875    4.3060  -43.5188 C   0  0  0  0  0  0  0  0  0  0  0  0
  -36.5388    4.8756  -42.2085 C   0  0  0  0  0  0  0  0  0  0  0  0
  -35.2302    5.4963  -42.4570 N   0  0  0  0  0  0  0  0  0  0  0  0
  -34.7041    6.1221  -41.2366 C   0  0  0  0  0  0  0  0  0  0  0  0
  -34.2794    4.5150  -42.9978 C   0  0  0  0  0  0  0  0  0  0  0  0
  -34.8279    3.9455  -44.3081 C   0  0  0  0  0  0  0  0  0  0  0  0
  -36.9082    3.7592  -46.3225 C   0  0  0  0  0  0  0  0  0  0  0  0
  -36.6693    4.9167  -46.0744 O   0  0  0  0  0  0  0  0  0  0  0  0
  -37.5464    3.3080  -47.9106 X   0  0  0  0  0  0  0  0  0  0  0  0
  1  2  1  0  0  0  0
  2  3  1  0  0  0  0
  2 10  1  0  0  0  0
  3  4  1  0  0  0  0
  3  9  1  0  0  0  0
  4  5  1  0  0  0  0
  5  6  1  0  0  0  0
  6  7  1  0  0  0  0
  6  8  1  0  0  0  0
  8  9  1  0  0  0  0
 10 11  2  0  0  0  0
 10 12  1  0  0  0  0
M  END
> <Index>
3674

> <PropertyFieldDistance>
nan

$$$$
5534684
BBcorina  12272117083D 1   1.00000     0.00000 
CORINA 4.3.0 0026  30.10.2019
 12 12  0  0  0  0  0  0  0  0999 V2000
  -35.0559   -0.1332  -47.3211 C   0  0  0  0  0  0  0  0  0  0  0  0
  -33.9193   -0.0092  -46.9324 O   0  0  0  0  0  0  0  0  0  0  0  0
  -36.1528    0.7101  -46.7241 C   0  0  0  0  0  0  0  0  0  0  0  0
  -35.5626    1.6328  -45.6558 C   0  0  0  0  0  0  0  0  0  0  0  0
  -36.6762    2.4890  -45.0496 C   0  0  0  0  0  0  0  0  0  0  0  0
  -36.1095    3.3749  -44.0239 N   0  0  0  0  0  0  0  0  0  0  0  0
  -37.0947    4.3728  -43.5877 C   0  0  0  0  0  0  0  0  0  0  0  0
  -36.5218    5.1812  -42.4215 C   0  0  0  0  0  0  0  0  0  0  0  0
  -35.2318    5.8729  -42.8713 C   0  0  0  0  0  0  0  0  0  0  0  0
  -34.2408    4.8155  -43.3659 C   0  0  0  0  0  0  0  0  0  0  0  0
  -34.8799    4.0177  -44.5048 C   0  0  0  0  0  0  0  0  0  0  0  0
  -35.4334   -1.3057  -48.5923 X   0  0  0  0  0  0  0  0  0  0  0  0
  1  2  2  0  0  0  0
  1  3  1  0  0  0  0
  1 12  1  0  0  0  0
  3  4  1  0  0  0  0
  4  5  1  0  0  0  0
  5  6  1  0  0  0  0
  6  7  1  0  0  0  0
  6 11  1  0  0  0  0
  7  8  1  0  0  0  0
  8  9  1  0  0  0  0
  9 10  1  0  0  0  0
 10 11  1  0  0  0  0
M  END
> <Index>
3689

> <PropertyFieldDistance>
nan

$$$$
2027050
BBcorina  12272117083D 1   1.00000     0.00000 
CORINA 4.3.0 0026  30.10.2019
 16 17  0  0  0  0  0  0  0  0999 V2000
  -34.6376    6.6245  -41.7109 C   0  0  0  0  0  0  0  0  0  0  0  0
  -33.5291    6.3493  -41.3192 O   0  0  0  0  0  0  0  0  0  0  0  0
  -35.2346    5.8725  -42.8725 C   0  0  0  0  0  0  0  0  0  0  0  0
  -36.5244    5.1793  -42.4246 C   0  0  0  0  0  0  0  0  0  0  0  0
  -37.0941    4.3693  -43.5915 C   0  0  0  0  0  0  0  0  0  0  0  0
  -36.1068    3.3727  -44.0255 N   0  0  0  0  0  0  0  0  0  0  0  0
  -36.6704    2.4856  -45.0517 C   0  0  0  0  0  0  0  0  0  0  0  0
  -35.5713    1.6435  -45.6464 C   0  0  0  0  0  0  0  0  0  0  0  0
  -35.2602    0.4180  -45.0876 C   0  0  0  0  0  0  0  0  0  0  0  0
  -34.2525   -0.3549  -45.6337 C   0  0  0  0  0  0  0  0  0  0  0  0
  -33.5560    0.0977  -46.7386 C   0  0  0  0  0  0  0  0  0  0  0  0
  -33.8662    1.3238  -47.2966 C   0  0  0  0  0  0  0  0  0  0  0  0
  -34.8744    2.0963  -46.7511 C   0  0  0  0  0  0  0  0  0  0  0  0
  -34.8772    4.0170  -44.5045 C   0  0  0  0  0  0  0  0  0  0  0  0
  -34.2413    4.8164  -43.3649 C   0  0  0  0  0  0  0  0  0  0  0  0
  -35.5615    7.9112  -40.9210 X   0  0  0  0  0  0  0  0  0  0  0  0
  1  2  2  0  0  0  0
  1  3  1  0  0  0  0
  1 16  1  0  0  0  0
  3  4  1  0  0  0  0
  3 15  1  0  0  0  0
  4  5  1  0  0  0  0
  5  6  1  0  0  0  0
  6  7  1  0  0  0  0
  6 14  1  0  0  0  0
  7  8  1  0  0  0  0
  8  9  2  0  0  0  0
  8 13  1  0  0  0  0
  9 10  1  0  0  0  0
 10 11  2  0  0  0  0
 11 12  1  0  0  0  0
 12 13  2  0  0  0  0
 14 15  1  0  0  0  0
M  END
> <Index>
3693

> <PropertyFieldDistance>
nan

$$$$
3048644
BBcorina  12272117083D 1   1.00000     0.00000 
CORINA 4.3.0 0026  30.10.2019
 11 11  0  0  0  0  0  0  0  0999 V2000
  -36.5247    0.9196  -46.9087 C   0  0  0  0  0  0  0  0  0  0  0  0
  -36.4940   -0.1208  -46.2964 O   0  0  0  0  0  0  0  0  0  0  0  0
  -36.3430    2.2273  -46.1821 C   0  0  0  0  0  0  0  0  0  0  0  0
  -36.1389    1.9574  -44.6899 C   0  0  0  0  0  0  0  0  0  0  0  0
  -35.9623    3.2285  -43.9834 N   0  0  0  0  0  0  0  0  0  0  0  0
  -37.0595    4.0155  -43.4079 C   0  0  0  0  0  0  0  0  0  0  0  0
  -36.4778    5.4273  -43.1734 C   0  0  0  0  0  0  0  0  0  0  0  0
  -34.9683    5.1259  -43.0262 C   0  0  0  0  0  0  0  0  0  0  0  0
  -34.7743    3.8273  -43.7776 C   0  0  0  0  0  0  0  0  0  0  0  0
  -33.7038    3.3890  -44.1424 O   0  0  0  0  0  0  0  0  0  0  0  0
  -36.7829    0.9087  -48.6597 X   0  0  0  0  0  0  0  0  0  0  0  0
  1  2  2  0  0  0  0
  1  3  1  0  0  0  0
  1 11  1  0  0  0  0
  3  4  1  0  0  0  0
  4  5  1  0  0  0  0
  5  6  1  0  0  0  0
  5  9  1  0  0  0  0
  6  7  1  0  0  0  0
  7  8  1  0  0  0  0
  8  9  1  0  0  0  0
  9 10  2  0  0  0  0
M  END
> <Index>
3697

> <PropertyFieldDistance>
nan

$$$$
1161318
BBcorina  12272117083D 1   1.00000     0.00000 
CORINA 4.3.0 0026  30.10.2019
 14 14  0  0  0  0  0  0  0  0999 V2000
  -35.2375   -0.6539  -46.6418 C   0  0  0  0  0  0  0  0  0  0  0  0
  -36.2436    0.2355  -45.9086 C   0  0  0  0  0  0  0  0  0  0  0  0
  -35.5747    1.5590  -45.5321 C   0  0  0  0  0  0  0  0  0  0  0  0
  -36.5657    2.4351  -44.8100 C   0  0  0  0  0  0  0  0  0  0  0  0
  -37.6957    2.0399  -44.6157 O   0  0  0  0  0  0  0  0  0  0  0  0
  -36.1962    3.6579  -44.3801 N   0  0  0  0  0  0  0  0  0  0  0  0
  -37.1510    4.5235  -43.6746 C   0  0  0  0  0  0  0  0  0  0  0  0
  -36.5319    4.9642  -42.3445 C   0  0  0  0  0  0  0  0  0  0  0  0
  -35.1720    5.6141  -42.6098 C   0  0  0  0  0  0  0  0  0  0  0  0
  -34.2364    4.5945  -43.2636 C   0  0  0  0  0  0  0  0  0  0  0  0
  -34.8295    4.1495  -44.6042 C   0  0  0  0  0  0  0  0  0  0  0  0
  -34.5750    6.0793  -41.3067 C   0  0  0  0  0  0  0  0  0  0  0  0
  -33.5121    5.6400  -40.9384 O   0  0  0  0  0  0  0  0  0  0  0  0
  -35.4319    7.2696  -40.3157 X   0  0  0  0  0  0  0  0  0  0  0  0
  1  2  1  0  0  0  0
  2  3  1  0  0  0  0
  3  4  1  0  0  0  0
  4  5  2  0  0  0  0
  4  6  1  0  0  0  0
  6  7  1  0  0  0  0
  6 11  1  0  0  0  0
  7  8  1  0  0  0  0
  8  9  1  0  0  0  0
  9 10  1  0  0  0  0
  9 12  1  0  0  0  0
 10 11  1  0  0  0  0
 12 13  2  0  0  0  0
 12 14  1  0  0  0  0
M  END
> <Index>
3783

> <PropertyFieldDistance>
nan

$$$$
1137198
BBcorina  12272117083D 1   1.00000     0.00000 
CORINA 4.3.0 0026  30.10.2019
 14 14  0  0  0  0  0  0  0  0999 V2000
  -38.0231   -0.5167  -45.9451 C   0  0  0  0  0  0  0  0  0  0  0  0
  -36.7154    0.2639  -45.7989 C   0  0  0  0  0  0  0  0  0  0  0  0
  -37.0041    1.6299  -45.1733 C   0  0  0  0  0  0  0  0  0  0  0  0
  -35.7160    2.3988  -45.0293 C   0  0  0  0  0  0  0  0  0  0  0  0
  -34.6701    1.9030  -45.3915 O   0  0  0  0  0  0  0  0  0  0  0  0
  -35.7263    3.6375  -44.4981 N   0  0  0  0  0  0  0  0  0  0  0  0
  -36.9862    4.2538  -44.0605 C   0  0  0  0  0  0  0  0  0  0  0  0
  -36.8265    4.7091  -42.6020 C   0  0  0  0  0  0  0  0  0  0  0  0
  -35.6066    5.6264  -42.4906 C   0  0  0  0  0  0  0  0  0  0  0  0
  -34.3478    4.8553  -42.8946 C   0  0  0  0  0  0  0  0  0  0  0  0
  -34.4786    4.3994  -44.3513 C   0  0  0  0  0  0  0  0  0  0  0  0
  -33.1427    5.7491  -42.7536 C   0  0  0  0  0  0  0  0  0  0  0  0
  -32.4585    5.9965  -43.7174 O   0  0  0  0  0  0  0  0  0  0  0  0
  -32.7301    6.4359  -41.1753 X   0  0  0  0  0  0  0  0  0  0  0  0
  1  2  1  0  0  0  0
  2  3  1  0  0  0  0
  3  4  1  0  0  0  0
  4  5  2  0  0  0  0
  4  6  1  0  0  0  0
  6  7  1  0  0  0  0
  6 11  1  0  0  0  0
  7  8  1  0  0  0  0
  8  9  1  0  0  0  0
  9 10  1  0  0  0  0
 10 11  1  0  0  0  0
 10 12  1  0  0  0  0
 12 13  2  0  0  0  0
 12 14  1  0  0  0  0
M  END
> <Index>
3784

> <PropertyFieldDistance>
nan

$$$$
5530692
BBcorina  12272117083D 1   1.00000     0.00000 
CORINA 4.3.0 0026  30.10.2019
 11 11  0  0  0  0  0  0  0  0999 V2000
  -38.2759    4.7106  -44.2666 C   0  0  0  0  0  0  0  0  0  0  0  0
  -37.0688    3.9731  -43.6834 C   0  0  0  0  0  0  0  0  0  0  0  0
  -36.4797    4.7576  -42.4914 C   0  0  0  0  0  0  0  0  0  0  0  0
  -34.9524    4.5736  -42.6060 C   0  0  0  0  0  0  0  0  0  0  0  0
  -34.7472    3.6934  -43.8576 C   0  0  0  0  0  0  0  0  0  0  0  0
  -33.4996    4.1377  -44.6236 C   0  0  0  0  0  0  0  0  0  0  0  0
  -35.9658    3.9180  -44.6771 N   0  0  0  0  0  0  0  0  0  0  0  0
  -36.1697    2.8183  -45.6295 C   0  0  0  0  0  0  0  0  0  0  0  0
  -36.3247    1.5229  -44.8754 C   0  0  0  0  0  0  0  0  0  0  0  0
  -36.1747    1.4999  -43.6773 O   0  0  0  0  0  0  0  0  0  0  0  0
  -36.7269    0.0349  -45.7455 X   0  0  0  0  0  0  0  0  0  0  0  0
  1  2  1  0  0  0  0
  2  3  1  0  0  0  0
  2  7  1  0  0  0  0
  3  4  1  0  0  0  0
  4  5  1  0  0  0  0
  5  6  1  0  0  0  0
  5  7  1  0  0  0  0
  7  8  1  0  0  0  0
  8  9  1  0  0  0  0
  9 10  2  0  0  0  0
  9 11  1  0  0  0  0
M  END
> <Index>
3808

> <PropertyFieldDistance>
nan

$$$$
3048302
BBcorina  12272117083D 1   1.00000     0.00000 
CORINA 4.3.0 0026  30.10.2019
 12 12  0  0  0  0  0  0  0  0999 V2000
  -35.9376    2.0118  -46.0906 C   0  0  0  0  0  0  0  0  0  0  0  0
  -36.3834    2.0883  -44.6290 C   0  0  0  0  0  0  0  0  0  0  0  0
  -36.0407    3.4034  -44.0821 N   0  0  0  0  0  0  0  0  0  0  0  0
  -37.1260    4.2418  -43.5883 C   0  0  0  0  0  0  0  0  0  0  0  0
  -36.5814    5.3206  -42.6485 C   0  0  0  0  0  0  0  0  0  0  0  0
  -35.4243    6.0405  -43.3515 C   0  0  0  0  0  0  0  0  0  0  0  0
  -34.2605    5.0571  -43.4982 C   0  0  0  0  0  0  0  0  0  0  0  0
  -34.7560    3.7608  -44.0723 C   0  0  0  0  0  0  0  0  0  0  0  0
  -33.9445    2.9985  -44.5529 O   0  0  0  0  0  0  0  0  0  0  0  0
  -35.6841    1.0160  -43.8337 C   0  0  0  0  0  0  0  0  0  0  0  0
  -34.9730    1.3191  -42.9060 O   0  0  0  0  0  0  0  0  0  0  0  0
  -35.9052   -0.6877  -44.2597 X   0  0  0  0  0  0  0  0  0  0  0  0
  1  2  1  0  0  0  0
  2  3  1  0  0  0  0
  2 10  1  0  0  0  0
  3  4  1  0  0  0  0
  3  8  1  0  0  0  0
  4  5  1  0  0  0  0
  5  6  1  0  0  0  0
  6  7  1  0  0  0  0
  7  8  1  0  0  0  0
  8  9  2  0  0  0  0
 10 11  2  0  0  0  0
 10 12  1  0  0  0  0
M  END
> <Index>
3813

> <PropertyFieldDistance>
nan

$$$$
1199854
BBcorina  12272117083D 1   1.00000     0.00000 
CORINA 4.3.0 0026  30.10.2019
 13 14  0  0  0  0  0  0  0  0999 V2000
  -35.7308    1.6117  -45.3826 C   0  0  0  0  0  0  0  0  0  0  0  0
  -35.1943    2.1079  -46.3439 O   0  0  0  0  0  0  0  0  0  0  0  0
  -36.3656    2.4913  -44.3365 C   0  0  0  0  0  0  0  0  0  0  0  0
  -36.1981    3.9010  -44.7147 N   0  0  0  0  0  0  0  0  0  0  0  0
  -37.0027    4.7771  -43.8513 C   0  0  0  0  0  0  0  0  0  0  0  0
  -36.6907    4.4589  -42.3839 C   0  0  0  0  0  0  0  0  0  0  0  0
  -35.1859    4.4332  -42.2185 C   0  0  0  0  0  0  0  0  0  0  0  0
  -34.3139    4.4963  -40.6956 S   0  0  0  0  0  0  0  0  0  0  0  0
  -32.7730    4.4164  -41.5379 C   0  0  0  0  0  0  0  0  0  0  0  0
  -32.9842    4.3495  -42.8495 C   0  0  0  0  0  0  0  0  0  0  0  0
  -34.3167    4.3570  -43.2459 C   0  0  0  0  0  0  0  0  0  0  0  0
  -34.7809    4.2868  -44.6942 C   0  0  0  0  0  0  0  0  0  0  0  0
  -35.7717   -0.1485  -45.2020 X   0  0  0  0  0  0  0  0  0  0  0  0
  1  2  2  0  0  0  0
  1  3  1  0  0  0  0
  1 13  1  0  0  0  0
  3  4  1  0  0  0  0
  4  5  1  0  0  0  0
  4 12  1  0  0  0  0
  5  6  1  0  0  0  0
  6  7  1  0  0  0  0
  7  8  1  0  0  0  0
  7 11  2  0  0  0  0
  8  9  1  0  0  0  0
  9 10  2  0  0  0  0
 10 11  1  0  0  0  0
 11 12  1  0  0  0  0
M  END
> <Index>
3824

> <PropertyFieldDistance>
nan

$$$$
15795868
BBcorina  12272117083D 1   1.00000     0.00000 
CORINA 4.3.0 0026  30.10.2019
 11 11  0  0  0  0  0  0  0  0999 V2000
  -37.1133    1.9529  -45.5795 C   0  0  0  0  0  0  0  0  0  0  0  0
  -35.7037    2.2732  -45.0781 C   0  0  0  0  0  0  0  0  0  0  0  0
  -35.6991    3.5981  -44.4433 N   0  0  0  0  0  0  0  0  0  0  0  0
  -36.8443    3.7514  -43.5369 C   0  0  0  0  0  0  0  0  0  0  0  0
  -36.8892    5.1866  -43.0078 C   0  0  0  0  0  0  0  0  0  0  0  0
  -35.5842    5.4937  -42.2680 C   0  0  0  0  0  0  0  0  0  0  0  0
  -34.4044    5.2798  -43.2203 C   0  0  0  0  0  0  0  0  0  0  0  0
  -34.4315    3.8418  -43.7432 C   0  0  0  0  0  0  0  0  0  0  0  0
  -33.1125    5.5228  -42.4833 C   0  0  0  0  0  0  0  0  0  0  0  0
  -32.2971    4.6374  -42.3861 O   0  0  0  0  0  0  0  0  0  0  0  0
  -32.7905    7.1060  -41.7603 X   0  0  0  0  0  0  0  0  0  0  0  0
  1  2  1  0  0  0  0
  2  3  1  0  0  0  0
  3  4  1  0  0  0  0
  3  8  1  0  0  0  0
  4  5  1  0  0  0  0
  5  6  1  0  0  0  0
  6  7  1  0  0  0  0
  7  8  1  0  0  0  0
  7  9  1  0  0  0  0
  9 10  2  0  0  0  0
  9 11  1  0  0  0  0
M  END
> <Index>
3830

> <PropertyFieldDistance>
nan

$$$$
7941842
BBcorina  12272117083D 1   1.00000     0.00000 
CORINA 4.3.0 0026  30.10.2019
 14 14  0  0  0  0  0  0  0  0999 V2000
  -34.9001    7.0587  -42.5819 O   0  0  0  0  0  0  0  0  0  0  0  0
  -35.1857    5.6613  -42.6687 C   0  0  0  0  0  0  0  0  0  0  0  0
  -36.6789    5.4623  -42.9406 C   0  0  0  0  0  0  0  0  0  0  0  0
  -36.9868    3.9629  -43.0023 C   0  0  0  0  0  0  0  0  0  0  0  0
  -36.1015    3.3358  -43.9930 N   0  0  0  0  0  0  0  0  0  0  0  0
  -34.6513    3.5394  -43.8736 C   0  0  0  0  0  0  0  0  0  0  0  0
  -34.3686    5.0435  -43.8056 C   0  0  0  0  0  0  0  0  0  0  0  0
  -36.6099    2.5882  -44.9927 C   0  0  0  0  0  0  0  0  0  0  0  0
  -37.8088    2.4281  -45.0806 O   0  0  0  0  0  0  0  0  0  0  0  0
  -35.6886    1.9516  -46.0011 C   0  0  0  0  0  0  0  0  0  0  0  0
  -36.5143    1.1642  -47.0205 C   0  0  0  0  0  0  0  0  0  0  0  0
  -35.5931    0.5275  -48.0290 C   0  0  0  0  0  0  0  0  0  0  0  0
  -34.3993    0.6871  -47.9413 O   0  0  0  0  0  0  0  0  0  0  0  0
  -36.2609   -0.4541  -49.3416 X   0  0  0  0  0  0  0  0  0  0  0  0
  1  2  1  0  0  0  0
  2  3  1  0  0  0  0
  2  7  1  0  0  0  0
  3  4  1  0  0  0  0
  4  5  1  0  0  0  0
  5  6  1  0  0  0  0
  5  8  1  0  0  0  0
  6  7  1  0  0  0  0
  8  9  2  0  0  0  0
  8 10  1  0  0  0  0
 10 11  1  0  0  0  0
 11 12  1  0  0  0  0
 12 13  2  0  0  0  0
 12 14  1  0  0  0  0
M  END
> <Index>
3831

> <PropertyFieldDistance>
nan

$$$$
13259632
BBcorina  12272117083D 1   1.00000     0.00000 
CORINA 4.3.0 0026  30.10.2019
 12 12  0  0  0  0  0  0  0  0999 V2000
  -34.3663    7.4740  -41.3649 O   0  0  0  0  0  0  0  0  0  0  0  0
  -35.4158    6.5080  -41.2799 C   0  0  0  0  0  0  0  0  0  0  0  0
  -35.5952    5.8287  -42.6391 C   0  0  0  0  0  0  0  0  0  0  0  0
  -36.7992    4.8843  -42.5843 C   0  0  0  0  0  0  0  0  0  0  0  0
  -36.9377    4.1638  -43.9273 C   0  0  0  0  0  0  0  0  0  0  0  0
  -35.7111    3.4064  -44.2067 N   0  0  0  0  0  0  0  0  0  0  0  0
  -35.8603    2.5918  -45.4200 C   0  0  0  0  0  0  0  0  0  0  0  0
  -36.8897    1.5175  -45.1805 C   0  0  0  0  0  0  0  0  0  0  0  0
  -37.3592    1.3662  -44.0782 O   0  0  0  0  0  0  0  0  0  0  0  0
  -34.5487    4.2977  -44.3109 C   0  0  0  0  0  0  0  0  0  0  0  0
  -34.3388    5.0222  -42.9793 C   0  0  0  0  0  0  0  0  0  0  0  0
  -37.4159    0.4825  -46.5164 X   0  0  0  0  0  0  0  0  0  0  0  0
  1  2  1  0  0  0  0
  2  3  1  0  0  0  0
  3  4  1  0  0  0  0
  3 11  1  0  0  0  0
  4  5  1  0  0  0  0
  5  6  1  0  0  0  0
  6  7  1  0  0  0  0
  6 10  1  0  0  0  0
  7  8  1  0  0  0  0
  8  9  2  0  0  0  0
  8 12  1  0  0  0  0
 10 11  1  0  0  0  0
M  END
> <Index>
3841

> <PropertyFieldDistance>
nan

$$$$
1322228
BBcorina  12272117083D 1   1.00000     0.00000 
CORINA 4.3.0 0026  30.10.2019
 12 12  0  0  0  0  0  0  0  0999 V2000
  -34.6468    6.6262  -41.7119 C   0  0  0  0  0  0  0  0  0  0  0  0
  -33.5387    6.3538  -41.3170 O   0  0  0  0  0  0  0  0  0  0  0  0
  -35.2390    5.8720  -42.8745 C   0  0  0  0  0  0  0  0  0  0  0  0
  -36.5285    5.1764  -42.4295 C   0  0  0  0  0  0  0  0  0  0  0  0
  -37.0932    4.3643  -43.5973 C   0  0  0  0  0  0  0  0  0  0  0  0
  -36.1026    3.3695  -44.0278 N   0  0  0  0  0  0  0  0  0  0  0  0
  -36.6615    2.4803  -45.0548 C   0  0  0  0  0  0  0  0  0  0  0  0
  -35.5845    1.6596  -45.6323 C   0  0  0  0  0  0  0  0  0  0  0  0
  -34.7255    1.0051  -46.0928 C   0  0  0  0  0  0  0  0  0  0  0  0
  -34.8731    4.0161  -44.5040 C   0  0  0  0  0  0  0  0  0  0  0  0
  -34.2420    4.8178  -43.3633 C   0  0  0  0  0  0  0  0  0  0  0  0
  -35.5755    7.9115  -40.9254 X   0  0  0  0  0  0  0  0  0  0  0  0
  1  2  2  0  0  0  0
  1  3  1  0  0  0  0
  1 12  1  0  0  0  0
  3  4  1  0  0  0  0
  3 11  1  0  0  0  0
  4  5  1  0  0  0  0
  5  6  1  0  0  0  0
  6  7  1  0  0  0  0
  6 10  1  0  0  0  0
  7  8  1  0  0  0  0
  8  9  3  0  0  0  0
 10 11  1  0  0  0  0
M  END
> <Index>
3881

> <PropertyFieldDistance>
nan

$$$$
1179756
BBcorina  12272117083D 1   1.00000     0.00000 
CORINA 4.3.0 0026  30.10.2019
 17 17  0  0  0  0  0  0  0  0999 V2000
  -33.1686    2.5494  -46.0411 C   0  0  0  0  0  0  0  0  0  0  0  0
  -34.3611    3.4750  -46.2906 C   0  0  0  0  0  0  0  0  0  0  0  0
  -35.6007    2.6950  -46.2540 N   0  0  0  0  0  0  0  0  0  0  0  0
  -36.0013    1.9012  -47.4184 C   0  0  0  0  0  0  0  0  0  0  0  0
  -36.1798    2.8226  -48.6268 C   0  0  0  0  0  0  0  0  0  0  0  0
  -34.9201    0.8628  -47.7242 C   0  0  0  0  0  0  0  0  0  0  0  0
  -36.3725    2.7076  -45.1493 C   0  0  0  0  0  0  0  0  0  0  0  0
  -37.4237    2.0968  -45.1350 O   0  0  0  0  0  0  0  0  0  0  0  0
  -35.9791    3.3976  -44.0603 N   0  0  0  0  0  0  0  0  0  0  0  0
  -36.9669    3.9027  -43.0970 C   0  0  0  0  0  0  0  0  0  0  0  0
  -36.7441    5.4054  -42.8999 C   0  0  0  0  0  0  0  0  0  0  0  0
  -35.2876    5.6525  -42.4992 C   0  0  0  0  0  0  0  0  0  0  0  0
  -34.3575    5.1650  -43.6125 C   0  0  0  0  0  0  0  0  0  0  0  0
  -34.5546    3.6593  -43.8142 C   0  0  0  0  0  0  0  0  0  0  0  0
  -35.0722    7.1270  -42.2748 C   0  0  0  0  0  0  0  0  0  0  0  0
  -35.9876    7.9005  -42.4239 O   0  0  0  0  0  0  0  0  0  0  0  0
  -33.4777    7.7255  -41.7927 X   0  0  0  0  0  0  0  0  0  0  0  0
  1  2  1  0  0  0  0
  2  3  1  0  0  0  0
  3  4  1  0  0  0  0
  3  7  1  0  0  0  0
  4  5  1  0  0  0  0
  4  6  1  0  0  0  0
  7  8  2  0  0  0  0
  7  9  1  0  0  0  0
  9 10  1  0  0  0  0
  9 14  1  0  0  0  0
 10 11  1  0  0  0  0
 11 12  1  0  0  0  0
 12 13  1  0  0  0  0
 12 15  1  0  0  0  0
 13 14  1  0  0  0  0
 15 16  2  0  0  0  0
 15 17  1  0  0  0  0
M  END
> <Index>
3884

> <PropertyFieldDistance>
nan

$$$$
5534692
BBcorina  12272117083D 1   1.00000     0.00000 
CORINA 4.3.0 0026  30.10.2019
 13 13  0  0  0  0  0  0  0  0999 V2000
  -35.7215    1.5890  -45.7500 C   0  0  0  0  0  0  0  0  0  0  0  0
  -36.6273    2.7488  -45.3314 C   0  0  0  0  0  0  0  0  0  0  0  0
  -36.1119    3.3512  -44.0947 N   0  0  0  0  0  0  0  0  0  0  0  0
  -37.0762    4.3073  -43.5330 C   0  0  0  0  0  0  0  0  0  0  0  0
  -36.5378    4.8515  -42.2076 C   0  0  0  0  0  0  0  0  0  0  0  0
  -35.2363    5.4941  -42.4375 N   0  0  0  0  0  0  0  0  0  0  0  0
  -34.7209    6.0965  -41.2007 C   0  0  0  0  0  0  0  0  0  0  0  0
  -33.2696    6.5325  -41.4122 C   0  0  0  0  0  0  0  0  0  0  0  0
  -32.7409    7.1504  -40.1435 C   0  0  0  0  0  0  0  0  0  0  0  0
  -33.4514    7.2334  -39.1706 O   0  0  0  0  0  0  0  0  0  0  0  0
  -34.2720    4.5379  -42.9992 C   0  0  0  0  0  0  0  0  0  0  0  0
  -34.8105    3.9937  -44.3245 C   0  0  0  0  0  0  0  0  0  0  0  0
  -31.0760    7.7478  -40.0771 X   0  0  0  0  0  0  0  0  0  0  0  0
  1  2  1  0  0  0  0
  2  3  1  0  0  0  0
  3  4  1  0  0  0  0
  3 12  1  0  0  0  0
  4  5  1  0  0  0  0
  5  6  1  0  0  0  0
  6  7  1  0  0  0  0
  6 11  1  0  0  0  0
  7  8  1  0  0  0  0
  8  9  1  0  0  0  0
  9 10  2  0  0  0  0
  9 13  1  0  0  0  0
 11 12  1  0  0  0  0
M  END
> <Index>
3906

> <PropertyFieldDistance>
nan

$$$$
6103810
BBcorina  12272117083D 1   1.00000     0.00000 
CORINA 4.3.0 0026  30.10.2019
 12 12  0  0  0  0  0  0  0  0999 V2000
  -35.7215    1.5890  -45.7499 C   0  0  0  0  0  0  0  0  0  0  0  0
  -36.6274    2.7488  -45.3314 C   0  0  0  0  0  0  0  0  0  0  0  0
  -36.1119    3.3512  -44.0947 N   0  0  0  0  0  0  0  0  0  0  0  0
  -37.0762    4.3073  -43.5330 C   0  0  0  0  0  0  0  0  0  0  0  0
  -36.5378    4.8516  -42.2076 C   0  0  0  0  0  0  0  0  0  0  0  0
  -35.2363    5.4941  -42.4375 N   0  0  0  0  0  0  0  0  0  0  0  0
  -34.7209    6.0964  -41.2007 C   0  0  0  0  0  0  0  0  0  0  0  0
  -35.6111    7.2412  -40.7906 C   0  0  0  0  0  0  0  0  0  0  0  0
  -36.5073    7.5991  -41.5163 O   0  0  0  0  0  0  0  0  0  0  0  0
  -34.2721    4.5379  -42.9992 C   0  0  0  0  0  0  0  0  0  0  0  0
  -34.8104    3.9937  -44.3245 C   0  0  0  0  0  0  0  0  0  0  0  0
  -35.3383    8.0657  -39.2483 X   0  0  0  0  0  0  0  0  0  0  0  0
  1  2  1  0  0  0  0
  2  3  1  0  0  0  0
  3  4  1  0  0  0  0
  3 11  1  0  0  0  0
  4  5  1  0  0  0  0
  5  6  1  0  0  0  0
  6  7  1  0  0  0  0
  6 10  1  0  0  0  0
  7  8  1  0  0  0  0
  8  9  2  0  0  0  0
  8 12  1  0  0  0  0
 10 11  1  0  0  0  0
M  END
> <Index>
3940

> <PropertyFieldDistance>
nan

$$$$
11409890
BBcorina  12272117083D 1   1.00000     0.00000 
CORINA 4.3.0 0026  30.10.2019
 11 11  0  0  0  0  0  0  0  0999 V2000
  -36.3041    2.2547  -44.8702 C   0  0  0  0  0  0  0  0  0  0  0  0
  -35.9951    3.5034  -44.1689 N   0  0  0  0  0  0  0  0  0  0  0  0
  -37.1047    4.2653  -43.6097 C   0  0  0  0  0  0  0  0  0  0  0  0
  -36.5989    5.2371  -42.5402 C   0  0  0  0  0  0  0  0  0  0  0  0
  -35.4376    6.0476  -43.1281 C   0  0  0  0  0  0  0  0  0  0  0  0
  -34.2552    5.1030  -43.3572 C   0  0  0  0  0  0  0  0  0  0  0  0
  -34.7168    3.8742  -44.0870 C   0  0  0  0  0  0  0  0  0  0  0  0
  -33.8824    3.1825  -44.6312 O   0  0  0  0  0  0  0  0  0  0  0  0
  -37.7114    6.1689  -42.1341 C   0  0  0  0  0  0  0  0  0  0  0  0
  -38.8049    6.0577  -42.6343 O   0  0  0  0  0  0  0  0  0  0  0  0
  -37.4154    7.4265  -40.9243 X   0  0  0  0  0  0  0  0  0  0  0  0
  1  2  1  0  0  0  0
  2  3  1  0  0  0  0
  2  7  1  0  0  0  0
  3  4  1  0  0  0  0
  4  5  1  0  0  0  0
  4  9  1  0  0  0  0
  5  6  1  0  0  0  0
  6  7  1  0  0  0  0
  7  8  2  0  0  0  0
  9 10  2  0  0  0  0
  9 11  1  0  0  0  0
M  END
> <Index>
3992

> <PropertyFieldDistance>
nan

$$$$
16784140
BBcorina  12272117083D 1   1.00000     0.00000 
CORINA 4.3.0 0026  30.10.2019
 12 12  0  0  0  0  0  0  0  0999 V2000
  -34.8338    6.9191  -42.1417 O   0  0  0  0  0  0  0  0  0  0  0  0
  -35.1630    5.5577  -42.4252 C   0  0  0  0  0  0  0  0  0  0  0  0
  -36.6429    5.4576  -42.8054 C   0  0  0  0  0  0  0  0  0  0  0  0
  -36.9749    4.0081  -43.1668 C   0  0  0  0  0  0  0  0  0  0  0  0
  -36.1324    3.5770  -44.2897 N   0  0  0  0  0  0  0  0  0  0  0  0
  -36.5188    2.2380  -44.7539 C   0  0  0  0  0  0  0  0  0  0  0  0
  -35.7986    1.9261  -46.0674 C   0  0  0  0  0  0  0  0  0  0  0  0
  -36.1951    0.5524  -46.5437 C   0  0  0  0  0  0  0  0  0  0  0  0
  -36.9733   -0.1089  -45.8992 O   0  0  0  0  0  0  0  0  0  0  0  0
  -34.7087    3.6195  -43.9322 C   0  0  0  0  0  0  0  0  0  0  0  0
  -34.3091    5.0575  -43.5937 C   0  0  0  0  0  0  0  0  0  0  0  0
  -35.5200   -0.0918  -48.0478 X   0  0  0  0  0  0  0  0  0  0  0  0
  1  2  1  0  0  0  0
  2  3  1  0  0  0  0
  2 11  1  0  0  0  0
  3  4  1  0  0  0  0
  4  5  1  0  0  0  0
  5  6  1  0  0  0  0
  5 10  1  0  0  0  0
  6  7  1  0  0  0  0
  7  8  1  0  0  0  0
  8  9  2  0  0  0  0
  8 12  1  0  0  0  0
 10 11  1  0  0  0  0
M  END
> <Index>
3998

> <PropertyFieldDistance>
nan

$$$$
1307914
BBcorina  12272117083D 1   1.00000     0.00000 
CORINA 4.3.0 0026  30.10.2019
 16 17  0  0  0  0  0  0  0  0999 V2000
  -37.3590   -1.5610  -46.6579 Cl  0  0  0  0  0  0  0  0  0  0  0  0
  -36.9362   -0.0102  -46.0024 C   0  0  0  0  0  0  0  0  0  0  0  0
  -35.8798    0.7146  -46.5398 C   0  0  0  0  0  0  0  0  0  0  0  0
  -35.5763    1.9465  -45.9880 C   0  0  0  0  0  0  0  0  0  0  0  0
  -36.3345    2.4150  -44.9203 C   0  0  0  0  0  0  0  0  0  0  0  0
  -37.3309    1.6923  -44.4324 N   0  0  0  0  0  0  0  0  0  0  0  0
  -37.6470    0.5165  -44.9411 C   0  0  0  0  0  0  0  0  0  0  0  0
  -36.0397    3.6515  -44.3562 N   0  0  0  0  0  0  0  0  0  0  0  0
  -36.9542    3.9559  -43.2483 C   0  0  0  0  0  0  0  0  0  0  0  0
  -36.6961    5.3791  -42.7485 C   0  0  0  0  0  0  0  0  0  0  0  0
  -35.2424    5.4951  -42.2816 C   0  0  0  0  0  0  0  0  0  0  0  0
  -34.3115    5.1261  -43.4400 C   0  0  0  0  0  0  0  0  0  0  0  0
  -34.6388    3.7102  -43.9198 C   0  0  0  0  0  0  0  0  0  0  0  0
  -34.9653    6.9103  -41.8441 C   0  0  0  0  0  0  0  0  0  0  0  0
  -35.8396    7.7415  -41.8995 O   0  0  0  0  0  0  0  0  0  0  0  0
  -33.3585    7.3543  -41.2491 X   0  0  0  0  0  0  0  0  0  0  0  0
  1  2  1  0  0  0  0
  2  3  2  0  0  0  0
  2  7  1  0  0  0  0
  3  4  1  0  0  0  0
  4  5  2  0  0  0  0
  5  6  1  0  0  0  0
  5  8  1  0  0  0  0
  6  7  2  0  0  0  0
  8  9  1  0  0  0  0
  8 13  1  0  0  0  0
  9 10  1  0  0  0  0
 10 11  1  0  0  0  0
 11 12  1  0  0  0  0
 11 14  1  0  0  0  0
 12 13  1  0  0  0  0
 14 15  2  0  0  0  0
 14 16  1  0  0  0  0
M  END
> <Index>
4039

> <PropertyFieldDistance>
nan

$$$$
2559486
BBcorina  12272117083D 1   1.00000     0.00000 
CORINA 4.3.0 0026  30.10.2019
 12 12  0  0  0  0  0  0  0  0999 V2000
  -35.6202    1.5934  -45.6165 C   0  0  0  0  0  0  0  0  0  0  0  0
  -36.7099    2.3791  -44.8843 C   0  0  0  0  0  0  0  0  0  0  0  0
  -36.2264    3.7365  -44.5982 N   0  0  0  0  0  0  0  0  0  0  0  0
  -37.1089    4.4196  -43.6346 C   0  0  0  0  0  0  0  0  0  0  0  0
  -38.2055    3.4622  -43.1637 C   0  0  0  0  0  0  0  0  0  0  0  0
  -36.2336    4.8498  -42.4386 C   0  0  0  0  0  0  0  0  0  0  0  0
  -34.8068    4.8906  -43.0464 C   0  0  0  0  0  0  0  0  0  0  0  0
  -34.8569    3.7049  -44.0421 C   0  0  0  0  0  0  0  0  0  0  0  0
  -33.8253    3.9000  -45.1551 C   0  0  0  0  0  0  0  0  0  0  0  0
  -37.9412    2.4565  -45.7498 C   0  0  0  0  0  0  0  0  0  0  0  0
  -38.1321    3.4268  -46.4428 O   0  0  0  0  0  0  0  0  0  0  0  0
  -39.1074    1.1250  -45.7506 X   0  0  0  0  0  0  0  0  0  0  0  0
  1  2  1  0  0  0  0
  2  3  1  0  0  0  0
  2 10  1  0  0  0  0
  3  4  1  0  0  0  0
  3  8  1  0  0  0  0
  4  5  1  0  0  0  0
  4  6  1  0  0  0  0
  6  7  1  0  0  0  0
  7  8  1  0  0  0  0
  8  9  1  0  0  0  0
 10 11  2  0  0  0  0
 10 12  1  0  0  0  0
M  END
> <Index>
4049

> <PropertyFieldDistance>
nan

$$$$
2008932
BBcorina  12272117083D 1   1.00000     0.00000 
CORINA 4.3.0 0026  30.10.2019
 15 16  0  0  0  0  0  0  0  0999 V2000
  -35.3036   -0.6138  -46.6866 C   0  0  0  0  0  0  0  0  0  0  0  0
  -36.0713    0.5576  -46.1303 C   0  0  0  0  0  0  0  0  0  0  0  0
  -37.3250    0.8338  -46.4903 C   0  0  0  0  0  0  0  0  0  0  0  0
  -37.8395    2.2757  -45.6187 S   0  0  0  0  0  0  0  0  0  0  0  0
  -36.3180    2.3632  -44.8438 C   0  0  0  0  0  0  0  0  0  0  0  0
  -35.5564    1.3938  -45.2464 N   0  0  0  0  0  0  0  0  0  0  0  0
  -35.9498    3.3330  -43.9245 N   0  0  0  0  0  0  0  0  0  0  0  0
  -37.0467    4.2810  -43.6917 C   0  0  0  0  0  0  0  0  0  0  0  0
  -36.6589    5.2465  -42.5694 C   0  0  0  0  0  0  0  0  0  0  0  0
  -35.3854    5.9982  -42.9668 C   0  0  0  0  0  0  0  0  0  0  0  0
  -34.2722    4.9859  -43.2506 C   0  0  0  0  0  0  0  0  0  0  0  0
  -34.7292    4.0280  -44.3531 C   0  0  0  0  0  0  0  0  0  0  0  0
  -34.9648    6.9068  -41.8405 C   0  0  0  0  0  0  0  0  0  0  0  0
  -35.6155    6.9498  -40.8242 O   0  0  0  0  0  0  0  0  0  0  0  0
  -33.5168    7.9111  -42.0074 X   0  0  0  0  0  0  0  0  0  0  0  0
  1  2  1  0  0  0  0
  2  3  2  0  0  0  0
  2  6  1  0  0  0  0
  3  4  1  0  0  0  0
  4  5  1  0  0  0  0
  5  6  2  0  0  0  0
  5  7  1  0  0  0  0
  7  8  1  0  0  0  0
  7 12  1  0  0  0  0
  8  9  1  0  0  0  0
  9 10  1  0  0  0  0
 10 11  1  0  0  0  0
 10 13  1  0  0  0  0
 11 12  1  0  0  0  0
 13 14  2  0  0  0  0
 13 15  1  0  0  0  0
M  END
> <Index>
4151

> <PropertyFieldDistance>
nan

$$$$
1880894
BBcorina  12272117083D 1   1.00000     0.00000 
CORINA 4.3.0 0026  30.10.2019
 12 12  0  0  0  0  0  0  0  0999 V2000
  -35.7936   -1.8861  -47.3365 C   0  0  0  0  0  0  0  0  0  0  0  0
  -36.6741   -2.3487  -46.6516 O   0  0  0  0  0  0  0  0  0  0  0  0
  -35.3656   -0.4536  -47.1473 C   0  0  0  0  0  0  0  0  0  0  0  0
  -36.1988    0.1848  -46.0341 C   0  0  0  0  0  0  0  0  0  0  0  0
  -35.7643    1.6391  -45.8420 C   0  0  0  0  0  0  0  0  0  0  0  0
  -36.5974    2.2775  -44.7288 C   0  0  0  0  0  0  0  0  0  0  0  0
  -36.1803    3.6739  -44.5443 N   0  0  0  0  0  0  0  0  0  0  0  0
  -37.1112    4.3902  -43.6533 C   0  0  0  0  0  0  0  0  0  0  0  0
  -36.2804    4.9534  -42.4812 C   0  0  0  0  0  0  0  0  0  0  0  0
  -34.8447    5.0109  -43.0666 C   0  0  0  0  0  0  0  0  0  0  0  0
  -34.8222    3.7491  -43.9647 C   0  0  0  0  0  0  0  0  0  0  0  0
  -35.0057   -2.8906  -48.5626 X   0  0  0  0  0  0  0  0  0  0  0  0
  1  2  2  0  0  0  0
  1  3  1  0  0  0  0
  1 12  1  0  0  0  0
  3  4  1  0  0  0  0
  4  5  1  0  0  0  0
  5  6  1  0  0  0  0
  6  7  1  0  0  0  0
  7  8  1  0  0  0  0
  7 11  1  0  0  0  0
  8  9  1  0  0  0  0
  9 10  1  0  0  0  0
 10 11  1  0  0  0  0
M  END
> <Index>
4157

> <PropertyFieldDistance>
nan

$$$$
5534696
BBcorina  12272117083D 1   1.00000     0.00000 
CORINA 4.3.0 0026  30.10.2019
 16 17  0  0  0  0  0  0  0  0999 V2000
  -37.3025   -1.3561  -46.5702 C   0  0  0  0  0  0  0  0  0  0  0  0
  -36.9360   -0.0093  -46.0018 C   0  0  0  0  0  0  0  0  0  0  0  0
  -35.8802    0.7147  -46.5391 C   0  0  0  0  0  0  0  0  0  0  0  0
  -35.5763    1.9466  -45.9879 C   0  0  0  0  0  0  0  0  0  0  0  0
  -36.3344    2.4154  -44.9201 C   0  0  0  0  0  0  0  0  0  0  0  0
  -37.3309    1.6925  -44.4323 N   0  0  0  0  0  0  0  0  0  0  0  0
  -37.6464    0.5167  -44.9413 C   0  0  0  0  0  0  0  0  0  0  0  0
  -36.0397    3.6514  -44.3562 N   0  0  0  0  0  0  0  0  0  0  0  0
  -36.9542    3.9558  -43.2483 C   0  0  0  0  0  0  0  0  0  0  0  0
  -36.6961    5.3790  -42.7485 C   0  0  0  0  0  0  0  0  0  0  0  0
  -35.2424    5.4951  -42.2817 C   0  0  0  0  0  0  0  0  0  0  0  0
  -34.3115    5.1260  -43.4401 C   0  0  0  0  0  0  0  0  0  0  0  0
  -34.6388    3.7101  -43.9198 C   0  0  0  0  0  0  0  0  0  0  0  0
  -34.9653    6.9103  -41.8441 C   0  0  0  0  0  0  0  0  0  0  0  0
  -35.8397    7.7415  -41.8996 O   0  0  0  0  0  0  0  0  0  0  0  0
  -33.3586    7.3542  -41.2492 X   0  0  0  0  0  0  0  0  0  0  0  0
  1  2  1  0  0  0  0
  2  3  2  0  0  0  0
  2  7  1  0  0  0  0
  3  4  1  0  0  0  0
  4  5  2  0  0  0  0
  5  6  1  0  0  0  0
  5  8  1  0  0  0  0
  6  7  2  0  0  0  0
  8  9  1  0  0  0  0
  8 13  1  0  0  0  0
  9 10  1  0  0  0  0
 10 11  1  0  0  0  0
 11 12  1  0  0  0  0
 11 14  1  0  0  0  0
 12 13  1  0  0  0  0
 14 15  2  0  0  0  0
 14 16  1  0  0  0  0
M  END
> <Index>
4159

> <PropertyFieldDistance>
nan

$$$$
13968774
BBcorina  12272117083D 1   1.00000     0.00000 
CORINA 4.3.0 0026  30.10.2019
 10 10  0  0  0  0  0  0  0  0999 V2000
  -36.3495    2.3570  -44.9464 C   0  0  0  0  0  0  0  0  0  0  0  0
  -36.0373    3.6631  -44.3508 N   0  0  0  0  0  0  0  0  0  0  0  0
  -36.9514    3.9683  -43.2428 C   0  0  0  0  0  0  0  0  0  0  0  0
  -36.6923    5.3914  -42.7433 C   0  0  0  0  0  0  0  0  0  0  0  0
  -35.2385    5.5067  -42.2767 C   0  0  0  0  0  0  0  0  0  0  0  0
  -34.3080    5.1368  -43.4351 C   0  0  0  0  0  0  0  0  0  0  0  0
  -34.6363    3.7211  -43.9146 C   0  0  0  0  0  0  0  0  0  0  0  0
  -32.8764    5.1905  -42.9675 C   0  0  0  0  0  0  0  0  0  0  0  0
  -32.6250    5.4966  -41.8267 O   0  0  0  0  0  0  0  0  0  0  0  0
  -31.5636    4.8049  -44.0903 X   0  0  0  0  0  0  0  0  0  0  0  0
  1  2  1  0  0  0  0
  2  3  1  0  0  0  0
  2  7  1  0  0  0  0
  3  4  1  0  0  0  0
  4  5  1  0  0  0  0
  5  6  1  0  0  0  0
  6  7  1  0  0  0  0
  6  8  1  0  0  0  0
  8  9  2  0  0  0  0
  8 10  1  0  0  0  0
M  END
> <Index>
4269

> <PropertyFieldDistance>
nan

$$$$
2262058
BBcorina  12272117083D 1   1.00000     0.00000 
CORINA 4.3.0 0026  30.10.2019
  9  9  0  0  0  0  0  0  0  0999 V2000
  -36.9134    6.2801  -42.1111 C   0  0  0  0  0  0  0  0  0  0  0  0
  -36.1267    7.1960  -42.0949 O   0  0  0  0  0  0  0  0  0  0  0  0
  -36.4463    4.8916  -42.4646 C   0  0  0  0  0  0  0  0  0  0  0  0
  -37.0412    4.4352  -43.8152 C   0  0  0  0  0  0  0  0  0  0  0  0
  -35.9837    3.6514  -44.4640 N   0  0  0  0  0  0  0  0  0  0  0  0
  -34.7864    3.8849  -43.8993 C   0  0  0  0  0  0  0  0  0  0  0  0
  -33.7428    3.3741  -44.2470 O   0  0  0  0  0  0  0  0  0  0  0  0
  -34.9300    4.8784  -42.7675 C   0  0  0  0  0  0  0  0  0  0  0  0
  -38.6154    6.5683  -41.7198 X   0  0  0  0  0  0  0  0  0  0  0  0
  1  2  2  0  0  0  0
  1  3  1  0  0  0  0
  1  9  1  0  0  0  0
  3  4  1  0  0  0  0
  3  8  1  0  0  0  0
  4  5  1  0  0  0  0
  5  6  1  0  0  0  0
  6  7  2  0  0  0  0
  6  8  1  0  0  0  0
M  END
> <Index>
4316

> <PropertyFieldDistance>
nan

$$$$
16525108
BBcorina  12272117083D 1   1.00000     0.00000 
CORINA 4.3.0 0026  30.10.2019
 10 10  0  0  0  0  0  0  0  0999 V2000
  -33.6741    1.6649  -44.2577 C   0  0  0  0  0  0  0  0  0  0  0  0
  -32.6366    2.2829  -44.2643 O   0  0  0  0  0  0  0  0  0  0  0  0
  -34.9893    2.4006  -44.2475 C   0  0  0  0  0  0  0  0  0  0  0  0
  -34.7305    3.9081  -44.2399 C   0  0  0  0  0  0  0  0  0  0  0  0
  -36.0587    4.6627  -44.3189 C   0  0  0  0  0  0  0  0  0  0  0  0
  -36.8913    4.3607  -43.0685 C   0  0  0  0  0  0  0  0  0  0  0  0
  -37.0336    2.8605  -42.9364 C   0  0  0  0  0  0  0  0  0  0  0  0
  -38.1189    2.3522  -42.7879 O   0  0  0  0  0  0  0  0  0  0  0  0
  -35.7817    2.0135  -42.9945 C   0  0  0  0  0  0  0  0  0  0  0  0
  -33.6501   -0.1049  -44.2675 X   0  0  0  0  0  0  0  0  0  0  0  0
  1  2  2  0  0  0  0
  1  3  1  0  0  0  0
  1 10  1  0  0  0  0
  3  4  1  0  0  0  0
  3  9  1  0  0  0  0
  4  5  1  0  0  0  0
  5  6  1  0  0  0  0
  6  7  1  0  0  0  0
  7  8  2  0  0  0  0
  7  9  1  0  0  0  0
M  END
> <Index>
4318

> <PropertyFieldDistance>
nan

$$$$
15556070
BBcorina  12272117083D 1   1.00000     0.00000 
CORINA 4.3.0 0026  30.10.2019
 14 14  0  0  0  0  0  0  0  0999 V2000
  -34.6910    1.3737  -48.1857 C   0  0  0  0  0  0  0  0  0  0  0  0
  -35.9076    1.6868  -47.3123 C   0  0  0  0  0  0  0  0  0  0  0  0
  -35.4667    2.3382  -46.0763 N   0  0  0  0  0  0  0  0  0  0  0  0
  -36.3725    2.7076  -45.1492 C   0  0  0  0  0  0  0  0  0  0  0  0
  -37.5445    2.4187  -45.2952 O   0  0  0  0  0  0  0  0  0  0  0  0
  -35.9792    3.3976  -44.0604 N   0  0  0  0  0  0  0  0  0  0  0  0
  -36.9669    3.9026  -43.0970 C   0  0  0  0  0  0  0  0  0  0  0  0
  -36.7441    5.4055  -42.8998 C   0  0  0  0  0  0  0  0  0  0  0  0
  -35.2876    5.6525  -42.4991 C   0  0  0  0  0  0  0  0  0  0  0  0
  -34.3575    5.1651  -43.6124 C   0  0  0  0  0  0  0  0  0  0  0  0
  -34.5545    3.6593  -43.8142 C   0  0  0  0  0  0  0  0  0  0  0  0
  -35.0723    7.1271  -42.2747 C   0  0  0  0  0  0  0  0  0  0  0  0
  -35.9877    7.9005  -42.4237 O   0  0  0  0  0  0  0  0  0  0  0  0
  -33.4777    7.7254  -41.7926 X   0  0  0  0  0  0  0  0  0  0  0  0
  1  2  1  0  0  0  0
  2  3  1  0  0  0  0
  3  4  1  0  0  0  0
  4  5  2  0  0  0  0
  4  6  1  0  0  0  0
  6  7  1  0  0  0  0
  6 11  1  0  0  0  0
  7  8  1  0  0  0  0
  8  9  1  0  0  0  0
  9 10  1  0  0  0  0
  9 12  1  0  0  0  0
 10 11  1  0  0  0  0
 12 13  2  0  0  0  0
 12 14  1  0  0  0  0
M  END
> <Index>
4359

> <PropertyFieldDistance>
nan

$$$$
3305450
BBcorina  12272117083D 1   1.00000     0.00000 
CORINA 4.3.0 0026  30.10.2019
 10 10  0  0  0  0  0  0  0  0999 V2000
  -38.9160    3.2314  -44.9052 C   0  0  0  0  0  0  0  0  0  0  0  0
  -38.4313    3.6469  -45.9303 O   0  0  0  0  0  0  0  0  0  0  0  0
  -38.2786    3.5650  -43.5810 C   0  0  0  0  0  0  0  0  0  0  0  0
  -37.0422    4.4353  -43.8149 C   0  0  0  0  0  0  0  0  0  0  0  0
  -36.4465    4.8918  -42.4646 C   0  0  0  0  0  0  0  0  0  0  0  0
  -34.9305    4.8787  -42.7683 C   0  0  0  0  0  0  0  0  0  0  0  0
  -34.7841    3.8845  -43.8992 C   0  0  0  0  0  0  0  0  0  0  0  0
  -33.7395    3.3744  -44.2448 O   0  0  0  0  0  0  0  0  0  0  0  0
  -35.9848    3.6515  -44.4643 N   0  0  0  0  0  0  0  0  0  0  0  0
  -40.3749    2.2306  -44.9581 X   0  0  0  0  0  0  0  0  0  0  0  0
  1  2  2  0  0  0  0
  1  3  1  0  0  0  0
  1 10  1  0  0  0  0
  3  4  1  0  0  0  0
  4  5  1  0  0  0  0
  4  9  1  0  0  0  0
  5  6  1  0  0  0  0
  6  7  1  0  0  0  0
  7  8  2  0  0  0  0
  7  9  1  0  0  0  0
M  END
> <Index>
4430

> <PropertyFieldDistance>
nan

$$$$
2729160
BBcorina  12272117083D 1   1.00000     0.00000 
CORINA 4.3.0 0026  30.10.2019
 16 16  0  0  0  0  0  0  0  0999 V2000
  -34.5871   -2.1641  -45.8121 C   0  0  0  0  0  0  0  0  0  0  0  0
  -34.2895   -0.6705  -45.6666 C   0  0  0  0  0  0  0  0  0  0  0  0
  -33.8556   -0.1027  -47.0194 C   0  0  0  0  0  0  0  0  0  0  0  0
  -35.5484    0.0562  -45.1886 C   0  0  0  0  0  0  0  0  0  0  0  0
  -35.2356    1.4516  -44.9372 O   0  0  0  0  0  0  0  0  0  0  0  0
  -36.2422    2.2357  -44.5073 C   0  0  0  0  0  0  0  0  0  0  0  0
  -37.3516    1.7667  -44.3466 O   0  0  0  0  0  0  0  0  0  0  0  0
  -36.0194    3.5408  -44.2551 N   0  0  0  0  0  0  0  0  0  0  0  0
  -37.1076    4.4090  -43.7856 C   0  0  0  0  0  0  0  0  0  0  0  0
  -36.6603    5.1075  -42.4976 C   0  0  0  0  0  0  0  0  0  0  0  0
  -35.3388    5.8368  -42.7501 C   0  0  0  0  0  0  0  0  0  0  0  0
  -34.2631    4.8238  -43.1488 C   0  0  0  0  0  0  0  0  0  0  0  0
  -34.6820    4.1209  -44.4388 C   0  0  0  0  0  0  0  0  0  0  0  0
  -34.9128    6.5531  -41.4945 C   0  0  0  0  0  0  0  0  0  0  0  0
  -33.8587    6.2807  -40.9720 O   0  0  0  0  0  0  0  0  0  0  0  0
  -35.9575    7.7936  -40.7855 X   0  0  0  0  0  0  0  0  0  0  0  0
  1  2  1  0  0  0  0
  2  3  1  0  0  0  0
  2  4  1  0  0  0  0
  4  5  1  0  0  0  0
  5  6  1  0  0  0  0
  6  7  2  0  0  0  0
  6  8  1  0  0  0  0
  8  9  1  0  0  0  0
  8 13  1  0  0  0  0
  9 10  1  0  0  0  0
 10 11  1  0  0  0  0
 11 12  1  0  0  0  0
 11 14  1  0  0  0  0
 12 13  1  0  0  0  0
 14 15  2  0  0  0  0
 14 16  1  0  0  0  0
M  END
> <Index>
4491

> <PropertyFieldDistance>
nan

$$$$
2531248
BBcorina  12272117083D 1   1.00000     0.00000 
CORINA 4.3.0 0026  30.10.2019
 11 11  0  0  0  0  0  0  0  0999 V2000
  -34.8875    5.9972  -41.0107 C   0  0  0  0  0  0  0  0  0  0  0  0
  -33.9407    6.7210  -41.2056 O   0  0  0  0  0  0  0  0  0  0  0  0
  -35.2456    4.9367  -42.0198 C   0  0  0  0  0  0  0  0  0  0  0  0
  -36.6621    5.1867  -42.5484 C   0  0  0  0  0  0  0  0  0  0  0  0
  -36.9662    4.1916  -43.6369 C   0  0  0  0  0  0  0  0  0  0  0  0
  -38.1130    3.8447  -43.8217 O   0  0  0  0  0  0  0  0  0  0  0  0
  -35.9927    3.6811  -44.4058 N   0  0  0  0  0  0  0  0  0  0  0  0
  -34.7017    4.0111  -44.2509 C   0  0  0  0  0  0  0  0  0  0  0  0
  -33.8685    3.5064  -44.9724 O   0  0  0  0  0  0  0  0  0  0  0  0
  -34.2646    4.9932  -43.1957 C   0  0  0  0  0  0  0  0  0  0  0  0
  -35.8591    6.1867  -39.5433 X   0  0  0  0  0  0  0  0  0  0  0  0
  1  2  2  0  0  0  0
  1  3  1  0  0  0  0
  1 11  1  0  0  0  0
  3  4  1  0  0  0  0
  3 10  1  0  0  0  0
  4  5  1  0  0  0  0
  5  6  2  0  0  0  0
  5  7  1  0  0  0  0
  7  8  1  0  0  0  0
  8  9  2  0  0  0  0
  8 10  1  0  0  0  0
M  END
> <Index>
4501

> <PropertyFieldDistance>
nan

$$$$
9224918
BBcorina  12272117083D 1   1.00000     0.00000 
CORINA 4.3.0 0026  30.10.2019
 13 13  0  0  0  0  0  0  0  0999 V2000
  -35.6395   -1.0153  -48.4373 C   0  0  0  0  0  0  0  0  0  0  0  0
  -36.8198   -0.9627  -48.6876 O   0  0  0  0  0  0  0  0  0  0  0  0
  -35.0560   -0.1298  -47.3667 C   0  0  0  0  0  0  0  0  0  0  0  0
  -36.1640    0.7321  -46.7578 C   0  0  0  0  0  0  0  0  0  0  0  0
  -35.5716    1.6312  -45.6708 C   0  0  0  0  0  0  0  0  0  0  0  0
  -36.6795    2.4930  -45.0620 C   0  0  0  0  0  0  0  0  0  0  0  0
  -36.1108    3.3562  -44.0184 N   0  0  0  0  0  0  0  0  0  0  0  0
  -37.0880    4.3615  -43.5758 C   0  0  0  0  0  0  0  0  0  0  0  0
  -36.4762    5.1987  -42.4494 C   0  0  0  0  0  0  0  0  0  0  0  0
  -35.2595    5.7925  -42.9104 O   0  0  0  0  0  0  0  0  0  0  0  0
  -34.2849    4.8421  -43.3486 C   0  0  0  0  0  0  0  0  0  0  0  0
  -34.8745    4.0012  -44.4840 C   0  0  0  0  0  0  0  0  0  0  0  0
  -34.5950   -2.1328  -49.3280 X   0  0  0  0  0  0  0  0  0  0  0  0
  1  2  2  0  0  0  0
  1  3  1  0  0  0  0
  1 13  1  0  0  0  0
  3  4  1  0  0  0  0
  4  5  1  0  0  0  0
  5  6  1  0  0  0  0
  6  7  1  0  0  0  0
  7  8  1  0  0  0  0
  7 12  1  0  0  0  0
  8  9  1  0  0  0  0
  9 10  1  0  0  0  0
 10 11  1  0  0  0  0
 11 12  1  0  0  0  0
M  END
> <Index>
4548

> <PropertyFieldDistance>
nan

$$$$
2673326
BBcorina  12272117083D 1   1.00000     0.00000 
CORINA 4.3.0 0026  30.10.2019
 11 11  0  0  0  0  0  0  0  0999 V2000
  -36.1551    0.7455  -46.7415 C   0  0  0  0  0  0  0  0  0  0  0  0
  -37.3354    0.7982  -46.9917 O   0  0  0  0  0  0  0  0  0  0  0  0
  -35.5716    1.6312  -45.6708 C   0  0  0  0  0  0  0  0  0  0  0  0
  -36.6796    2.4929  -45.0620 C   0  0  0  0  0  0  0  0  0  0  0  0
  -36.1107    3.3562  -44.0184 N   0  0  0  0  0  0  0  0  0  0  0  0
  -37.0879    4.3615  -43.5758 C   0  0  0  0  0  0  0  0  0  0  0  0
  -36.4762    5.1987  -42.4494 C   0  0  0  0  0  0  0  0  0  0  0  0
  -35.2595    5.7925  -42.9104 O   0  0  0  0  0  0  0  0  0  0  0  0
  -34.2850    4.8420  -43.3486 C   0  0  0  0  0  0  0  0  0  0  0  0
  -34.8745    4.0012  -44.4841 C   0  0  0  0  0  0  0  0  0  0  0  0
  -35.1093   -0.3666  -47.6373 X   0  0  0  0  0  0  0  0  0  0  0  0
  1  2  2  0  0  0  0
  1  3  1  0  0  0  0
  1 11  1  0  0  0  0
  3  4  1  0  0  0  0
  4  5  1  0  0  0  0
  5  6  1  0  0  0  0
  5 10  1  0  0  0  0
  6  7  1  0  0  0  0
  7  8  1  0  0  0  0
  8  9  1  0  0  0  0
  9 10  1  0  0  0  0
M  END
> <Index>
4574

> <PropertyFieldDistance>
nan

$$$$
3000060
BBcorina  12272117083D 1   1.00000     0.00000 
CORINA 4.3.0 0026  30.10.2019
 16 17  0  0  0  0  0  0  0  0999 V2000
  -36.4275    2.6267  -45.2574 C   0  0  0  0  0  0  0  0  0  0  0  0
  -35.9858    3.2990  -44.0283 N   0  0  0  0  0  0  0  0  0  0  0  0
  -37.0072    4.2390  -43.5459 C   0  0  0  0  0  0  0  0  0  0  0  0
  -36.5440    4.8579  -42.2250 C   0  0  0  0  0  0  0  0  0  0  0  0
  -35.2593    5.5409  -42.4310 N   0  0  0  0  0  0  0  0  0  0  0  0
  -34.2378    4.6009  -42.9133 C   0  0  0  0  0  0  0  0  0  0  0  0
  -34.7010    3.9821  -44.2343 C   0  0  0  0  0  0  0  0  0  0  0  0
  -34.8411    6.1773  -41.2676 C   0  0  0  0  0  0  0  0  0  0  0  0
  -33.6422    6.8817  -41.2621 C   0  0  0  0  0  0  0  0  0  0  0  0
  -33.2367    7.5161  -40.0843 C   0  0  0  0  0  0  0  0  0  0  0  0
  -34.0639    7.4110  -38.9571 C   0  0  0  0  0  0  0  0  0  0  0  0
  -35.2377    6.6920  -39.0498 C   0  0  0  0  0  0  0  0  0  0  0  0
  -35.5888    6.1061  -40.1780 N   0  0  0  0  0  0  0  0  0  0  0  0
  -31.9725    8.2750  -40.0287 C   0  0  0  0  0  0  0  0  0  0  0  0
  -31.2720    8.3545  -41.0099 O   0  0  0  0  0  0  0  0  0  0  0  0
  -31.4823    9.0690  -38.5246 X   0  0  0  0  0  0  0  0  0  0  0  0
  1  2  1  0  0  0  0
  2  3  1  0  0  0  0
  2  7  1  0  0  0  0
  3  4  1  0  0  0  0
  4  5  1  0  0  0  0
  5  6  1  0  0  0  0
  5  8  1  0  0  0  0
  6  7  1  0  0  0  0
  8  9  2  0  0  0  0
  8 13  1  0  0  0  0
  9 10  1  0  0  0  0
 10 11  2  0  0  0  0
 10 14  1  0  0  0  0
 11 12  1  0  0  0  0
 12 13  2  0  0  0  0
 14 15  2  0  0  0  0
 14 16  1  0  0  0  0
M  END
> <Index>
4628

> <PropertyFieldDistance>
nan

$$$$
2909456
BBcorina  12272117083D 1   1.00000     0.00000 
CORINA 4.3.0 0026  30.10.2019
 16 17  0  0  0  0  0  0  0  0999 V2000
  -34.9594    6.9212  -41.8237 C   0  0  0  0  0  0  0  0  0  0  0  0
  -35.3855    5.9977  -42.9667 C   0  0  0  0  0  0  0  0  0  0  0  0
  -36.6590    5.2460  -42.5695 C   0  0  0  0  0  0  0  0  0  0  0  0
  -37.0468    4.2807  -43.6920 C   0  0  0  0  0  0  0  0  0  0  0  0
  -35.9499    3.3327  -43.9250 N   0  0  0  0  0  0  0  0  0  0  0  0
  -34.7293    4.0278  -44.3534 C   0  0  0  0  0  0  0  0  0  0  0  0
  -34.2722    4.9854  -43.2506 C   0  0  0  0  0  0  0  0  0  0  0  0
  -36.3174    2.3650  -44.8426 C   0  0  0  0  0  0  0  0  0  0  0  0
  -35.4050    1.3713  -45.1954 C   0  0  0  0  0  0  0  0  0  0  0  0
  -35.7706    0.4151  -46.1027 C   0  0  0  0  0  0  0  0  0  0  0  0
  -37.0645    0.4709  -46.6505 C   0  0  0  0  0  0  0  0  0  0  0  0
  -37.9270    1.4972  -46.2498 C   0  0  0  0  0  0  0  0  0  0  0  0
  -37.5346    2.3932  -45.3699 N   0  0  0  0  0  0  0  0  0  0  0  0
  -37.5034   -0.5322  -47.6282 C   0  0  0  0  0  0  0  0  0  0  0  0
  -38.6216   -0.4753  -48.0950 O   0  0  0  0  0  0  0  0  0  0  0  0
  -36.4011   -1.8244  -48.1261 X   0  0  0  0  0  0  0  0  0  0  0  0
  1  2  1  0  0  0  0
  2  3  1  0  0  0  0
  2  7  1  0  0  0  0
  3  4  1  0  0  0  0
  4  5  1  0  0  0  0
  5  6  1  0  0  0  0
  5  8  1  0  0  0  0
  6  7  1  0  0  0  0
  8  9  2  0  0  0  0
  8 13  1  0  0  0  0
  9 10  1  0  0  0  0
 10 11  2  0  0  0  0
 11 12  1  0  0  0  0
 11 14  1  0  0  0  0
 12 13  2  0  0  0  0
 14 15  2  0  0  0  0
 14 16  1  0  0  0  0
M  END
> <Index>
4641

> <PropertyFieldDistance>
nan

$$$$
2834260
BBcorina  12272117083D 1   1.00000     0.00000 
CORINA 4.3.0 0026  30.10.2019
 13 14  0  0  0  0  0  0  0  0999 V2000
  -36.4354    2.2275  -44.7317 C   0  0  0  0  0  0  0  0  0  0  0  0
  -35.9498    3.5047  -44.2032 N   0  0  0  0  0  0  0  0  0  0  0  0
  -36.7344    4.5499  -43.8053 C   0  0  0  0  0  0  0  0  0  0  0  0
  -35.9570    5.5602  -43.3755 C   0  0  0  0  0  0  0  0  0  0  0  0
  -34.6078    5.1524  -43.5000 C   0  0  0  0  0  0  0  0  0  0  0  0
  -33.3700    5.7725  -43.2137 C   0  0  0  0  0  0  0  0  0  0  0  0
  -32.1842    5.0769  -43.4590 C   0  0  0  0  0  0  0  0  0  0  0  0
  -32.2235    3.7966  -43.9758 C   0  0  0  0  0  0  0  0  0  0  0  0
  -33.4289    3.1831  -44.2584 C   0  0  0  0  0  0  0  0  0  0  0  0
  -34.6261    3.8483  -44.0257 C   0  0  0  0  0  0  0  0  0  0  0  0
  -33.3316    7.1313  -42.6659 C   0  0  0  0  0  0  0  0  0  0  0  0
  -34.3657    7.7298  -42.4552 O   0  0  0  0  0  0  0  0  0  0  0  0
  -31.7766    7.8990  -42.3115 X   0  0  0  0  0  0  0  0  0  0  0  0
  1  2  1  0  0  0  0
  2  3  1  0  0  0  0
  2 10  1  0  0  0  0
  3  4  2  0  0  0  0
  4  5  1  0  0  0  0
  5  6  2  0  0  0  0
  5 10  1  0  0  0  0
  6  7  1  0  0  0  0
  6 11  1  0  0  0  0
  7  8  2  0  0  0  0
  8  9  1  0  0  0  0
  9 10  2  0  0  0  0
 11 12  2  0  0  0  0
 11 13  1  0  0  0  0
M  END
> <Index>
4650

> <PropertyFieldDistance>
nan

$$$$
6166654
BBcorina  12272117083D 1   1.00000     0.00000 
CORINA 4.3.0 0026  30.10.2019
 10 10  0  0  0  0  0  0  0  0999 V2000
  -36.3490    2.3379  -44.9329 C   0  0  0  0  0  0  0  0  0  0  0  0
  -36.0415    3.6587  -44.3681 N   0  0  0  0  0  0  0  0  0  0  0  0
  -36.9551    3.9850  -43.2635 C   0  0  0  0  0  0  0  0  0  0  0  0
  -36.6389    5.3903  -42.7450 C   0  0  0  0  0  0  0  0  0  0  0  0
  -35.2663    5.4486  -42.3475 O   0  0  0  0  0  0  0  0  0  0  0  0
  -34.3486    5.1368  -43.3992 C   0  0  0  0  0  0  0  0  0  0  0  0
  -34.6417    3.7290  -43.9244 C   0  0  0  0  0  0  0  0  0  0  0  0
  -32.9387    5.1932  -42.8700 C   0  0  0  0  0  0  0  0  0  0  0  0
  -32.7424    5.3860  -41.6942 O   0  0  0  0  0  0  0  0  0  0  0  0
  -31.5705    4.9767  -43.9718 X   0  0  0  0  0  0  0  0  0  0  0  0
  1  2  1  0  0  0  0
  2  3  1  0  0  0  0
  2  7  1  0  0  0  0
  3  4  1  0  0  0  0
  4  5  1  0  0  0  0
  5  6  1  0  0  0  0
  6  7  1  0  0  0  0
  6  8  1  0  0  0  0
  8  9  2  0  0  0  0
  8 10  1  0  0  0  0
M  END
> <Index>
4743

> <PropertyFieldDistance>
nan

$$$$
12399804
BBcorina  12272117083D 1   1.00000     0.00000 
CORINA 4.3.0 0026  30.10.2019
  9  9  0  0  0  0  0  0  0  0999 V2000
  -37.3977    5.6282  -44.6607 C   0  0  0  0  0  0  0  0  0  0  0  0
  -36.6556    5.9850  -45.5441 O   0  0  0  0  0  0  0  0  0  0  0  0
  -37.0417    4.4335  -43.8141 C   0  0  0  0  0  0  0  0  0  0  0  0
  -36.4461    4.8928  -42.4648 C   0  0  0  0  0  0  0  0  0  0  0  0
  -34.9300    4.8797  -42.7686 C   0  0  0  0  0  0  0  0  0  0  0  0
  -34.7867    3.8840  -43.8986 C   0  0  0  0  0  0  0  0  0  0  0  0
  -33.7431    3.3729  -44.2458 O   0  0  0  0  0  0  0  0  0  0  0  0
  -35.9833    3.6528  -44.4655 N   0  0  0  0  0  0  0  0  0  0  0  0
  -38.9037    6.5086  -44.3604 X   0  0  0  0  0  0  0  0  0  0  0  0
  1  2  2  0  0  0  0
  1  3  1  0  0  0  0
  1  9  1  0  0  0  0
  3  4  1  0  0  0  0
  3  8  1  0  0  0  0
  4  5  1  0  0  0  0
  5  6  1  0  0  0  0
  6  7  2  0  0  0  0
  6  8  1  0  0  0  0
M  END
> <Index>
4841

> <PropertyFieldDistance>
nan

$$$$
11733140
BBcorina  12272117083D 1   1.00000     0.00000 
CORINA 4.3.0 0026  30.10.2019
 10 10  0  0  0  0  0  0  0  0999 V2000
  -36.2287    2.0313  -45.9677 C   0  0  0  0  0  0  0  0  0  0  0  0
  -36.3158    2.9029  -44.7133 C   0  0  0  0  0  0  0  0  0  0  0  0
  -35.1664    3.9129  -44.7132 C   0  0  0  0  0  0  0  0  0  0  0  0
  -35.2535    4.7845  -43.4588 C   0  0  0  0  0  0  0  0  0  0  0  0
  -35.1546    3.8993  -42.2148 C   0  0  0  0  0  0  0  0  0  0  0  0
  -36.3039    2.8893  -42.2148 C   0  0  0  0  0  0  0  0  0  0  0  0
  -36.2169    2.0177  -43.4693 C   0  0  0  0  0  0  0  0  0  0  0  0
  -33.8394    3.1636  -42.2250 C   0  0  0  0  0  0  0  0  0  0  0  0
  -33.8230    1.9561  -42.2317 O   0  0  0  0  0  0  0  0  0  0  0  0
  -32.3187    4.0694  -42.2347 X   0  0  0  0  0  0  0  0  0  0  0  0
  1  2  1  0  0  0  0
  2  3  1  0  0  0  0
  2  7  1  0  0  0  0
  3  4  1  0  0  0  0
  4  5  1  0  0  0  0
  5  6  1  0  0  0  0
  5  8  1  0  0  0  0
  6  7  1  0  0  0  0
  8  9  2  0  0  0  0
  8 10  1  0  0  0  0
M  END
> <Index>
4877

> <PropertyFieldDistance>
nan

$$$$
12055624
BBcorina  12272117083D 1   1.00000     0.00000 
CORINA 4.3.0 0026  30.10.2019
 13 13  0  0  0  0  0  0  0  0999 V2000
  -35.9521    1.5149  -47.1734 C   0  0  0  0  0  0  0  0  0  0  0  0
  -35.4565    2.2504  -46.0237 O   0  0  0  0  0  0  0  0  0  0  0  0
  -36.3725    2.7073  -45.1492 C   0  0  0  0  0  0  0  0  0  0  0  0
  -37.5538    2.4972  -45.3413 O   0  0  0  0  0  0  0  0  0  0  0  0
  -35.9792    3.3978  -44.0605 N   0  0  0  0  0  0  0  0  0  0  0  0
  -36.9669    3.9027  -43.0971 C   0  0  0  0  0  0  0  0  0  0  0  0
  -36.7440    5.4055  -42.8997 C   0  0  0  0  0  0  0  0  0  0  0  0
  -35.2875    5.6524  -42.4989 C   0  0  0  0  0  0  0  0  0  0  0  0
  -34.3575    5.1651  -43.6123 C   0  0  0  0  0  0  0  0  0  0  0  0
  -34.5545    3.6594  -43.8143 C   0  0  0  0  0  0  0  0  0  0  0  0
  -35.0721    7.1269  -42.2742 C   0  0  0  0  0  0  0  0  0  0  0  0
  -35.9875    7.9003  -42.4233 O   0  0  0  0  0  0  0  0  0  0  0  0
  -33.4775    7.7251  -41.7921 X   0  0  0  0  0  0  0  0  0  0  0  0
  1  2  1  0  0  0  0
  2  3  1  0  0  0  0
  3  4  2  0  0  0  0
  3  5  1  0  0  0  0
  5  6  1  0  0  0  0
  5 10  1  0  0  0  0
  6  7  1  0  0  0  0
  7  8  1  0  0  0  0
  8  9  1  0  0  0  0
  8 11  1  0  0  0  0
  9 10  1  0  0  0  0
 11 12  2  0  0  0  0
 11 13  1  0  0  0  0
M  END
> <Index>
5137

> <PropertyFieldDistance>
nan

$$$$
14577478
BBcorina  12272117083D 1   1.00000     0.00000 
CORINA 4.3.0 0026  30.10.2019
 12 12  0  0  0  0  0  0  0  0999 V2000
  -33.5397    5.6906  -40.3852 C   0  0  0  0  0  0  0  0  0  0  0  0
  -32.9371    4.7046  -40.7360 O   0  0  0  0  0  0  0  0  0  0  0  0
  -34.8812    6.0098  -40.9932 C   0  0  0  0  0  0  0  0  0  0  0  0
  -35.2453    4.9343  -42.0186 C   0  0  0  0  0  0  0  0  0  0  0  0
  -36.6612    5.1863  -42.5479 C   0  0  0  0  0  0  0  0  0  0  0  0
  -36.9658    4.1923  -43.6373 C   0  0  0  0  0  0  0  0  0  0  0  0
  -38.1129    3.8469  -43.8230 O   0  0  0  0  0  0  0  0  0  0  0  0
  -35.9925    3.6814  -44.4061 N   0  0  0  0  0  0  0  0  0  0  0  0
  -34.7013    4.0099  -44.2502 C   0  0  0  0  0  0  0  0  0  0  0  0
  -33.8682    3.5049  -44.9717 O   0  0  0  0  0  0  0  0  0  0  0  0
  -34.2665    4.9937  -43.1962 C   0  0  0  0  0  0  0  0  0  0  0  0
  -32.8441    6.7647  -39.1624 X   0  0  0  0  0  0  0  0  0  0  0  0
  1  2  2  0  0  0  0
  1  3  1  0  0  0  0
  1 12  1  0  0  0  0
  3  4  1  0  0  0  0
  4  5  1  0  0  0  0
  4 11  1  0  0  0  0
  5  6  1  0  0  0  0
  6  7  2  0  0  0  0
  6  8  1  0  0  0  0
  8  9  1  0  0  0  0
  9 10  2  0  0  0  0
  9 11  1  0  0  0  0
M  END
> <Index>
5168

> <PropertyFieldDistance>
nan

$$$$
13022828
BBcorina  12272117083D 1   1.00000     0.00000 
CORINA 4.3.0 0026  30.10.2019
 12 12  0  0  0  0  0  0  0  0999 V2000
  -37.0678    1.9890  -45.6971 C   0  0  0  0  0  0  0  0  0  0  0  0
  -35.7310    2.2200  -44.9894 C   0  0  0  0  0  0  0  0  0  0  0  0
  -34.5893    2.0834  -45.9987 C   0  0  0  0  0  0  0  0  0  0  0  0
  -35.7116    3.5688  -44.4077 N   0  0  0  0  0  0  0  0  0  0  0  0
  -36.8540    3.7702  -43.5074 C   0  0  0  0  0  0  0  0  0  0  0  0
  -36.8830    5.2256  -43.0355 C   0  0  0  0  0  0  0  0  0  0  0  0
  -35.5740    5.5478  -42.3093 C   0  0  0  0  0  0  0  0  0  0  0  0
  -34.3975    5.2837  -43.2532 C   0  0  0  0  0  0  0  0  0  0  0  0
  -34.4406    3.8265  -43.7187 C   0  0  0  0  0  0  0  0  0  0  0  0
  -33.1024    5.5418  -42.5272 C   0  0  0  0  0  0  0  0  0  0  0  0
  -32.2942    4.6535  -42.3998 O   0  0  0  0  0  0  0  0  0  0  0  0
  -32.7626    7.1488  -41.8677 X   0  0  0  0  0  0  0  0  0  0  0  0
  1  2  1  0  0  0  0
  2  3  1  0  0  0  0
  2  4  1  0  0  0  0
  4  5  1  0  0  0  0
  4  9  1  0  0  0  0
  5  6  1  0  0  0  0
  6  7  1  0  0  0  0
  7  8  1  0  0  0  0
  8  9  1  0  0  0  0
  8 10  1  0  0  0  0
 10 11  2  0  0  0  0
 10 12  1  0  0  0  0
M  END
> <Index>
5187

> <PropertyFieldDistance>
nan

$$$$
10749752
BBcorina  12272117083D 1   1.00000     0.00000 
CORINA 4.3.0 0026  30.10.2019
 12 12  0  0  0  0  0  0  0  0999 V2000
  -35.7067    1.8923  -46.0007 C   0  0  0  0  0  0  0  0  0  0  0  0
  -36.5787    2.2847  -44.8064 C   0  0  0  0  0  0  0  0  0  0  0  0
  -38.0442    2.3432  -45.2422 C   0  0  0  0  0  0  0  0  0  0  0  0
  -36.1631    3.6029  -44.3087 N   0  0  0  0  0  0  0  0  0  0  0  0
  -36.9801    4.0132  -43.1595 C   0  0  0  0  0  0  0  0  0  0  0  0
  -36.6188    5.4458  -42.7606 C   0  0  0  0  0  0  0  0  0  0  0  0
  -35.1315    5.5109  -42.4024 C   0  0  0  0  0  0  0  0  0  0  0  0
  -34.3049    5.0327  -43.5992 C   0  0  0  0  0  0  0  0  0  0  0  0
  -34.7333    3.6121  -43.9739 C   0  0  0  0  0  0  0  0  0  0  0  0
  -34.7565    6.9310  -42.0648 C   0  0  0  0  0  0  0  0  0  0  0  0
  -33.9107    7.5019  -42.7106 O   0  0  0  0  0  0  0  0  0  0  0  0
  -35.5555    7.7620  -40.7218 X   0  0  0  0  0  0  0  0  0  0  0  0
  1  2  1  0  0  0  0
  2  3  1  0  0  0  0
  2  4  1  0  0  0  0
  4  5  1  0  0  0  0
  4  9  1  0  0  0  0
  5  6  1  0  0  0  0
  6  7  1  0  0  0  0
  7  8  1  0  0  0  0
  7 10  1  0  0  0  0
  8  9  1  0  0  0  0
 10 11  2  0  0  0  0
 10 12  1  0  0  0  0
M  END
> <Index>
5188

> <PropertyFieldDistance>
nan

$$$$
11409904
BBcorina  12272117083D 1   1.00000     0.00000 
CORINA 4.3.0 0026  30.10.2019
 12 12  0  0  0  0  0  0  0  0999 V2000
  -36.2208    1.3352  -45.0009 C   0  0  0  0  0  0  0  0  0  0  0  0
  -36.2605    2.7590  -45.5593 C   0  0  0  0  0  0  0  0  0  0  0  0
  -35.9692    3.7128  -44.4861 N   0  0  0  0  0  0  0  0  0  0  0  0
  -37.0894    4.2351  -43.7136 C   0  0  0  0  0  0  0  0  0  0  0  0
  -36.5976    4.8089  -42.3821 C   0  0  0  0  0  0  0  0  0  0  0  0
  -35.4473    5.7824  -42.6662 C   0  0  0  0  0  0  0  0  0  0  0  0
  -34.2519    4.9801  -43.1863 C   0  0  0  0  0  0  0  0  0  0  0  0
  -34.6962    4.0527  -44.2807 C   0  0  0  0  0  0  0  0  0  0  0  0
  -33.8521    3.5883  -45.0174 O   0  0  0  0  0  0  0  0  0  0  0  0
  -37.7247    5.5427  -41.7024 C   0  0  0  0  0  0  0  0  0  0  0  0
  -37.6222    6.7229  -41.4677 O   0  0  0  0  0  0  0  0  0  0  0  0
  -39.1989    4.6750  -41.2480 X   0  0  0  0  0  0  0  0  0  0  0  0
  1  2  1  0  0  0  0
  2  3  1  0  0  0  0
  3  4  1  0  0  0  0
  3  8  1  0  0  0  0
  4  5  1  0  0  0  0
  5  6  1  0  0  0  0
  5 10  1  0  0  0  0
  6  7  1  0  0  0  0
  7  8  1  0  0  0  0
  8  9  2  0  0  0  0
 10 11  2  0  0  0  0
 10 12  1  0  0  0  0
M  END
> <Index>
5199

> <PropertyFieldDistance>
nan

$$$$
11678490
BBcorina  12272117083D 1   1.00000     0.00000 
CORINA 4.3.0 0026  30.10.2019
 14 15  0  0  0  0  0  0  0  0999 V2000
  -35.3937   -0.5886  -46.6918 C   0  0  0  0  0  0  0  0  0  0  0  0
  -35.9384   -1.3115  -47.5005 O   0  0  0  0  0  0  0  0  0  0  0  0
  -36.1102    0.5607  -46.1388 C   0  0  0  0  0  0  0  0  0  0  0  0
  -37.3896    0.8704  -46.4922 C   0  0  0  0  0  0  0  0  0  0  0  0
  -37.8843    2.2655  -45.6367 S   0  0  0  0  0  0  0  0  0  0  0  0
  -36.3175    2.3646  -44.8429 C   0  0  0  0  0  0  0  0  0  0  0  0
  -35.5601    1.3959  -45.2474 N   0  0  0  0  0  0  0  0  0  0  0  0
  -35.9499    3.3328  -43.9248 N   0  0  0  0  0  0  0  0  0  0  0  0
  -37.0468    4.2808  -43.6919 C   0  0  0  0  0  0  0  0  0  0  0  0
  -36.6589    5.2461  -42.5695 C   0  0  0  0  0  0  0  0  0  0  0  0
  -35.3855    5.9978  -42.9667 C   0  0  0  0  0  0  0  0  0  0  0  0
  -34.2723    4.9855  -43.2506 C   0  0  0  0  0  0  0  0  0  0  0  0
  -34.7293    4.0278  -44.3533 C   0  0  0  0  0  0  0  0  0  0  0  0
  -33.7326   -0.9250  -46.1815 X   0  0  0  0  0  0  0  0  0  0  0  0
  1  2  2  0  0  0  0
  1  3  1  0  0  0  0
  1 14  1  0  0  0  0
  3  4  2  0  0  0  0
  3  7  1  0  0  0  0
  4  5  1  0  0  0  0
  5  6  1  0  0  0  0
  6  7  2  0  0  0  0
  6  8  1  0  0  0  0
  8  9  1  0  0  0  0
  8 13  1  0  0  0  0
  9 10  1  0  0  0  0
 10 11  1  0  0  0  0
 11 12  1  0  0  0  0
 12 13  1  0  0  0  0
M  END
> <Index>
5219

> <PropertyFieldDistance>
nan

$$$$
15545388
BBcorina  12272117083D 1   1.00000     0.00000 
CORINA 4.3.0 0026  30.10.2019
 13 13  0  0  0  0  0  0  0  0999 V2000
  -35.7508    1.9097  -46.0357 C   0  0  0  0  0  0  0  0  0  0  0  0
  -36.5498    2.2607  -44.7790 C   0  0  0  0  0  0  0  0  0  0  0  0
  -36.2732    1.2204  -43.6917 C   0  0  0  0  0  0  0  0  0  0  0  0
  -36.1483    3.5895  -44.2986 N   0  0  0  0  0  0  0  0  0  0  0  0
  -36.9776    4.0112  -43.1624 C   0  0  0  0  0  0  0  0  0  0  0  0
  -36.6306    5.4525  -42.7830 C   0  0  0  0  0  0  0  0  0  0  0  0
  -35.1467    5.5350  -42.4143 C   0  0  0  0  0  0  0  0  0  0  0  0
  -34.7795    6.9851  -42.0927 C   0  0  0  0  0  0  0  0  0  0  0  0
  -33.3527    7.0473  -41.6121 C   0  0  0  0  0  0  0  0  0  0  0  0
  -32.6970    6.0361  -41.5347 O   0  0  0  0  0  0  0  0  0  0  0  0
  -34.3070    5.0449  -43.5972 C   0  0  0  0  0  0  0  0  0  0  0  0
  -34.7214    3.6153  -43.9530 C   0  0  0  0  0  0  0  0  0  0  0  0
  -32.6377    8.6023  -41.1610 X   0  0  0  0  0  0  0  0  0  0  0  0
  1  2  1  0  0  0  0
  2  3  1  0  0  0  0
  2  4  1  0  0  0  0
  4  5  1  0  0  0  0
  4 12  1  0  0  0  0
  5  6  1  0  0  0  0
  6  7  1  0  0  0  0
  7  8  1  0  0  0  0
  7 11  1  0  0  0  0
  8  9  1  0  0  0  0
  9 10  2  0  0  0  0
  9 13  1  0  0  0  0
 11 12  1  0  0  0  0
M  END
> <Index>
5243

> <PropertyFieldDistance>
nan

$$$$
16463546
BBcorina  12272117083D 1   1.00000     0.00000 
CORINA 4.3.0 0026  30.10.2019
 11 11  0  0  0  0  0  0  0  0999 V2000
  -36.3354    2.3075  -44.8787 C   0  0  0  0  0  0  0  0  0  0  0  0
  -35.9453    3.3416  -43.9110 N   0  0  0  0  0  0  0  0  0  0  0  0
  -37.0432    4.2897  -43.6828 C   0  0  0  0  0  0  0  0  0  0  0  0
  -36.6554    5.2625  -42.5667 C   0  0  0  0  0  0  0  0  0  0  0  0
  -35.3834    6.0133  -42.9700 C   0  0  0  0  0  0  0  0  0  0  0  0
  -34.9562    6.9432  -41.8327 C   0  0  0  0  0  0  0  0  0  0  0  0
  -33.7775    7.7708  -42.2762 C   0  0  0  0  0  0  0  0  0  0  0  0
  -33.3256    7.6311  -43.3874 O   0  0  0  0  0  0  0  0  0  0  0  0
  -34.2691    5.0007  -43.2489 C   0  0  0  0  0  0  0  0  0  0  0  0
  -34.7262    4.0356  -44.3451 C   0  0  0  0  0  0  0  0  0  0  0  0
  -33.0553    8.9474  -41.1686 X   0  0  0  0  0  0  0  0  0  0  0  0
  1  2  1  0  0  0  0
  2  3  1  0  0  0  0
  2 10  1  0  0  0  0
  3  4  1  0  0  0  0
  4  5  1  0  0  0  0
  5  6  1  0  0  0  0
  5  9  1  0  0  0  0
  6  7  1  0  0  0  0
  7  8  2  0  0  0  0
  7 11  1  0  0  0  0
  9 10  1  0  0  0  0
M  END
> <Index>
5247

> <PropertyFieldDistance>
nan

$$$$
4834004
BBcorina  12272117083D 1   1.00000     0.00000 
CORINA 4.3.0 0026  30.10.2019
  9  9  0  0  0  0  0  0  0  0999 V2000
  -36.8920    4.0135  -45.2574 C   0  0  0  0  0  0  0  0  0  0  0  0
  -37.3505    3.2229  -46.0467 O   0  0  0  0  0  0  0  0  0  0  0  0
  -36.1553    3.5205  -44.0387 C   0  0  0  0  0  0  0  0  0  0  0  0
  -36.1346    1.9948  -44.0471 C   0  0  0  0  0  0  0  0  0  0  0  0
  -35.6384    1.4716  -42.6966 C   0  0  0  0  0  0  0  0  0  0  0  0
  -33.9261    2.0265  -42.4453 S   0  0  0  0  0  0  0  0  0  0  0  0
  -34.0621    3.8211  -42.6990 C   0  0  0  0  0  0  0  0  0  0  0  0
  -34.7358    4.0798  -44.0492 C   0  0  0  0  0  0  0  0  0  0  0  0
  -37.0854    5.7514  -45.5318 X   0  0  0  0  0  0  0  0  0  0  0  0
  1  2  2  0  0  0  0
  1  3  1  0  0  0  0
  1  9  1  0  0  0  0
  3  4  1  0  0  0  0
  3  8  1  0  0  0  0
  4  5  1  0  0  0  0
  5  6  1  0  0  0  0
  6  7  1  0  0  0  0
  7  8  1  0  0  0  0
M  END
> <Index>
5250

> <PropertyFieldDistance>
nan

$$$$
4832534
BBcorina  12272117083D 1   1.00000     0.00000 
CORINA 4.3.0 0026  30.10.2019
 16 17  0  0  0  0  0  0  0  0999 V2000
  -34.6370    6.6234  -41.7105 C   0  0  0  0  0  0  0  0  0  0  0  0
  -35.1880    6.6112  -40.6361 O   0  0  0  0  0  0  0  0  0  0  0  0
  -35.2348    5.8726  -42.8724 C   0  0  0  0  0  0  0  0  0  0  0  0
  -36.5242    5.1792  -42.4248 C   0  0  0  0  0  0  0  0  0  0  0  0
  -37.0942    4.3694  -43.5915 C   0  0  0  0  0  0  0  0  0  0  0  0
  -36.1069    3.3727  -44.0254 N   0  0  0  0  0  0  0  0  0  0  0  0
  -36.6705    2.4855  -45.0516 C   0  0  0  0  0  0  0  0  0  0  0  0
  -35.5712    1.6435  -45.6464 C   0  0  0  0  0  0  0  0  0  0  0  0
  -35.2456    0.4119  -45.0991 C   0  0  0  0  0  0  0  0  0  0  0  0
  -34.2319   -0.3328  -45.6719 C   0  0  0  0  0  0  0  0  0  0  0  0
  -33.5779    0.1159  -46.7254 N   0  0  0  0  0  0  0  0  0  0  0  0
  -33.8606    1.2822  -47.2721 C   0  0  0  0  0  0  0  0  0  0  0  0
  -34.8654    2.0794  -46.7574 C   0  0  0  0  0  0  0  0  0  0  0  0
  -34.8772    4.0170  -44.5044 C   0  0  0  0  0  0  0  0  0  0  0  0
  -34.2414    4.8164  -43.3648 C   0  0  0  0  0  0  0  0  0  0  0  0
  -33.1272    7.5229  -41.9207 X   0  0  0  0  0  0  0  0  0  0  0  0
  1  2  2  0  0  0  0
  1  3  1  0  0  0  0
  1 16  1  0  0  0  0
  3  4  1  0  0  0  0
  3 15  1  0  0  0  0
  4  5  1  0  0  0  0
  5  6  1  0  0  0  0
  6  7  1  0  0  0  0
  6 14  1  0  0  0  0
  7  8  1  0  0  0  0
  8  9  2  0  0  0  0
  8 13  1  0  0  0  0
  9 10  1  0  0  0  0
 10 11  2  0  0  0  0
 11 12  1  0  0  0  0
 12 13  2  0  0  0  0
 14 15  1  0  0  0  0
M  END
> <Index>
5357

> <PropertyFieldDistance>
nan

$$$$
4906394
BBcorina  12272117083D 1   1.00000     0.00000 
CORINA 4.3.0 0026  30.10.2019
 10 11  0  0  0  0  0  0  0  0999 V2000
  -35.9815    1.6223  -45.6103 C   0  0  0  0  0  0  0  0  0  0  0  0
  -37.1733    1.4830  -45.7458 O   0  0  0  0  0  0  0  0  0  0  0  0
  -35.4456    2.7538  -44.7714 C   0  0  0  0  0  0  0  0  0  0  0  0
  -34.6327    2.2090  -43.5694 C   0  0  0  0  0  0  0  0  0  0  0  0
  -35.4267    2.7436  -42.3398 C   0  0  0  0  0  0  0  0  0  0  0  0
  -35.1315    4.2728  -42.2921 C   0  0  0  0  0  0  0  0  0  0  0  0
  -35.9525    4.8267  -43.5121 C   0  0  0  0  0  0  0  0  0  0  0  0
  -36.6057    3.5307  -44.0796 C   0  0  0  0  0  0  0  0  0  0  0  0
  -36.7997    2.7331  -42.8657 O   0  0  0  0  0  0  0  0  0  0  0  0
  -34.8639    0.4975  -46.3969 X   0  0  0  0  0  0  0  0  0  0  0  0
  1  2  2  0  0  0  0
  1  3  1  0  0  0  0
  1 10  1  0  0  0  0
  3  4  1  0  0  0  0
  3  8  1  0  0  0  0
  4  5  1  0  0  0  0
  5  6  1  0  0  0  0
  5  9  1  0  0  0  0
  6  7  1  0  0  0  0
  7  8  1  0  0  0  0
  8  9  1  0  0  0  0
M  END
> <Index>
5399

> <PropertyFieldDistance>
nan

$$$$
4903482
BBcorina  12272117083D 1   1.00000     0.00000 
CORINA 4.3.0 0026  30.10.2019
 12 12  0  0  0  0  0  0  0  0999 V2000
  -36.4292    1.5215  -45.0056 C   0  0  0  0  0  0  0  0  0  0  0  0
  -36.1472    2.9042  -45.5968 C   0  0  0  0  0  0  0  0  0  0  0  0
  -35.9378    3.8686  -44.5087 N   0  0  0  0  0  0  0  0  0  0  0  0
  -36.9557    3.7768  -43.5552 C   0  0  0  0  0  0  0  0  0  0  0  0
  -36.8809    4.9271  -42.5275 C   0  0  0  0  0  0  0  0  0  0  0  0
  -35.7826    4.6306  -41.5375 C   0  0  0  0  0  0  0  0  0  0  0  0
  -34.4354    5.2613  -41.9427 C   0  0  0  0  0  0  0  0  0  0  0  0
  -34.1653    5.1224  -43.4506 C   0  0  0  0  0  0  0  0  0  0  0  0
  -34.5694    3.7632  -43.9646 C   0  0  0  0  0  0  0  0  0  0  0  0
  -37.3204    3.3406  -46.4359 C   0  0  0  0  0  0  0  0  0  0  0  0
  -37.9202    4.3508  -46.1563 O   0  0  0  0  0  0  0  0  0  0  0  0
  -37.8194    2.3726  -47.8313 X   0  0  0  0  0  0  0  0  0  0  0  0
  1  2  1  0  0  0  0
  2  3  1  0  0  0  0
  2 10  1  0  0  0  0
  3  4  1  0  0  0  0
  3  9  1  0  0  0  0
  4  5  1  0  0  0  0
  5  6  1  0  0  0  0
  6  7  1  0  0  0  0
  7  8  1  0  0  0  0
  8  9  1  0  0  0  0
 10 11  2  0  0  0  0
 10 12  1  0  0  0  0
M  END
> <Index>
5402

> <PropertyFieldDistance>
nan

$$$$
12206072
BBcorina  12272117083D 1   1.00000     0.00000 
CORINA 4.3.0 0026  30.10.2019
  9  9  0  0  0  0  0  0  0  0999 V2000
  -36.3258    2.4444  -45.0971 C   0  0  0  0  0  0  0  0  0  0  0  0
  -36.0592    3.1991  -43.8654 N   0  0  0  0  0  0  0  0  0  0  0  0
  -37.0922    4.2439  -43.6471 C   0  0  0  0  0  0  0  0  0  0  0  0
  -36.3980    5.2312  -42.6757 C   0  0  0  0  0  0  0  0  0  0  0  0
  -34.9353    5.2380  -43.1762 C   0  0  0  0  0  0  0  0  0  0  0  0
  -34.7700    3.9186  -43.9531 C   0  0  0  0  0  0  0  0  0  0  0  0
  -33.6761    3.0899  -43.3307 C   0  0  0  0  0  0  0  0  0  0  0  0
  -33.9238    1.9901  -42.8979 O   0  0  0  0  0  0  0  0  0  0  0  0
  -32.0281    3.7286  -43.2339 X   0  0  0  0  0  0  0  0  0  0  0  0
  1  2  1  0  0  0  0
  2  3  1  0  0  0  0
  2  6  1  0  0  0  0
  3  4  1  0  0  0  0
  4  5  1  0  0  0  0
  5  6  1  0  0  0  0
  6  7  1  0  0  0  0
  7  8  2  0  0  0  0
  7  9  1  0  0  0  0
M  END
> <Index>
5420

> <PropertyFieldDistance>
nan

$$$$
11681744
BBcorina  12272117083D 1   1.00000     0.00000 
CORINA 4.3.0 0026  30.10.2019
 12 12  0  0  0  0  0  0  0  0999 V2000
  -38.6395    3.8885  -44.4356 C   0  0  0  0  0  0  0  0  0  0  0  0
  -38.2100    2.9825  -43.7524 O   0  0  0  0  0  0  0  0  0  0  0  0
  -37.7995    5.0516  -44.7200 C   0  0  0  0  0  0  0  0  0  0  0  0
  -36.5201    5.0595  -44.3403 C   0  0  0  0  0  0  0  0  0  0  0  0
  -35.8489    3.7753  -43.9266 C   0  0  0  0  0  0  0  0  0  0  0  0
  -34.5587    3.6330  -44.6879 C   0  0  0  0  0  0  0  0  0  0  0  0
  -34.3303    2.1378  -44.9898 C   0  0  0  0  0  0  0  0  0  0  0  0
  -33.7885    1.4175  -43.8471 C   0  0  0  0  0  0  0  0  0  0  0  0
  -34.7438    1.4358  -42.6363 C   0  0  0  0  0  0  0  0  0  0  0  0
  -34.5955    2.7576  -41.9312 C   0  0  0  0  0  0  0  0  0  0  0  0
  -35.6342    3.7940  -42.4011 C   0  0  0  0  0  0  0  0  0  0  0  0
  -40.2826    3.8027  -45.0882 X   0  0  0  0  0  0  0  0  0  0  0  0
  1  2  2  0  0  0  0
  1  3  1  0  0  0  0
  1 12  1  0  0  0  0
  3  4  2  0  0  0  0
  4  5  1  0  0  0  0
  5  6  1  0  0  0  0
  5 11  1  0  0  0  0
  6  7  1  0  0  0  0
  7  8  1  0  0  0  0
  8  9  1  0  0  0  0
  9 10  1  0  0  0  0
 10 11  1  0  0  0  0
M  END
> <Index>
5504

> <PropertyFieldDistance>
nan

$$$$
15498716
BBcorina  12272117083D 1   1.00000     0.00000 
CORINA 4.3.0 0026  30.10.2019
 14 15  0  0  0  0  0  0  0  0999 V2000
  -35.6393   -0.1389  -44.8218 C   0  0  0  0  0  0  0  0  0  0  0  0
  -36.2144   -0.7520  -43.9549 O   0  0  0  0  0  0  0  0  0  0  0  0
  -35.5527    1.3639  -44.7511 C   0  0  0  0  0  0  0  0  0  0  0  0
  -36.2689    1.8574  -43.4923 C   0  0  0  0  0  0  0  0  0  0  0  0
  -35.5289    1.3505  -42.2527 C   0  0  0  0  0  0  0  0  0  0  0  0
  -34.0935    1.8801  -42.2636 C   0  0  0  0  0  0  0  0  0  0  0  0
  -34.1143    3.4099  -42.2552 C   0  0  0  0  0  0  0  0  0  0  0  0
  -34.8542    3.9168  -43.4947 C   0  0  0  0  0  0  0  0  0  0  0  0
  -34.8750    5.4466  -43.4863 C   0  0  0  0  0  0  0  0  0  0  0  0
  -35.6150    5.9534  -44.7258 C   0  0  0  0  0  0  0  0  0  0  0  0
  -37.0504    5.4239  -44.7150 C   0  0  0  0  0  0  0  0  0  0  0  0
  -37.0296    3.8940  -44.7234 C   0  0  0  0  0  0  0  0  0  0  0  0
  -36.2896    3.3872  -43.4839 C   0  0  0  0  0  0  0  0  0  0  0  0
  -34.8980   -1.0053  -46.1756 X   0  0  0  0  0  0  0  0  0  0  0  0
  1  2  2  0  0  0  0
  1  3  1  0  0  0  0
  1 14  1  0  0  0  0
  3  4  1  0  0  0  0
  4  5  1  0  0  0  0
  4 13  1  0  0  0  0
  5  6  1  0  0  0  0
  6  7  1  0  0  0  0
  7  8  1  0  0  0  0
  8  9  1  0  0  0  0
  8 13  1  0  0  0  0
  9 10  1  0  0  0  0
 10 11  1  0  0  0  0
 11 12  1  0  0  0  0
 12 13  1  0  0  0  0
M  END
> <Index>
5509

> <PropertyFieldDistance>
nan

$$$$
11560626
BBcorina  12272117083D 1   1.00000     0.00000 
CORINA 4.3.0 0026  30.10.2019
 10 10  0  0  0  0  0  0  0  0999 V2000
  -32.9361    4.3575  -42.5871 C   0  0  0  0  0  0  0  0  0  0  0  0
  -32.8705    4.0122  -41.4317 O   0  0  0  0  0  0  0  0  0  0  0  0
  -34.2216    4.9238  -43.1326 C   0  0  0  0  0  0  0  0  0  0  0  0
  -35.2761    4.9515  -42.0234 C   0  0  0  0  0  0  0  0  0  0  0  0
  -36.6374    5.2660  -42.6555 C   0  0  0  0  0  0  0  0  0  0  0  0
  -37.0532    4.0839  -43.5335 C   0  0  0  0  0  0  0  0  0  0  0  0
  -35.9753    3.7210  -44.4451 N   0  0  0  0  0  0  0  0  0  0  0  0
  -34.6998    4.0689  -44.2710 C   0  0  0  0  0  0  0  0  0  0  0  0
  -33.8823    3.6744  -45.0753 O   0  0  0  0  0  0  0  0  0  0  0  0
  -31.5220    4.1984  -43.6398 X   0  0  0  0  0  0  0  0  0  0  0  0
  1  2  2  0  0  0  0
  1  3  1  0  0  0  0
  1 10  1  0  0  0  0
  3  4  1  0  0  0  0
  3  8  1  0  0  0  0
  4  5  1  0  0  0  0
  5  6  1  0  0  0  0
  6  7  1  0  0  0  0
  7  8  1  0  0  0  0
  8  9  2  0  0  0  0
M  END
> <Index>
5539

> <PropertyFieldDistance>
nan

$$$$
14039126
BBcorina  12272117083D 1   1.00000     0.00000 
CORINA 4.3.0 0026  30.10.2019
 10 10  0  0  0  0  0  0  0  0999 V2000
  -34.0063    5.2057  -41.8351 C   0  0  0  0  0  0  0  0  0  0  0  0
  -35.0535    4.2333  -42.3818 C   0  0  0  0  0  0  0  0  0  0  0  0
  -36.4325    4.9206  -42.5115 C   0  0  0  0  0  0  0  0  0  0  0  0
  -37.0202    4.3372  -43.7776 C   0  0  0  0  0  0  0  0  0  0  0  0
  -38.1904    4.3947  -44.0909 O   0  0  0  0  0  0  0  0  0  0  0  0
  -36.0567    3.7454  -44.5045 N   0  0  0  0  0  0  0  0  0  0  0  0
  -34.7483    3.8600  -43.8495 C   0  0  0  0  0  0  0  0  0  0  0  0
  -33.9306    4.9434  -44.5039 C   0  0  0  0  0  0  0  0  0  0  0  0
  -34.3582    5.5190  -45.4756 O   0  0  0  0  0  0  0  0  0  0  0  0
  -32.3433    5.3723  -43.8485 X   0  0  0  0  0  0  0  0  0  0  0  0
  1  2  1  0  0  0  0
  2  3  1  0  0  0  0
  2  7  1  0  0  0  0
  3  4  1  0  0  0  0
  4  5  2  0  0  0  0
  4  6  1  0  0  0  0
  6  7  1  0  0  0  0
  7  8  1  0  0  0  0
  8  9  2  0  0  0  0
  8 10  1  0  0  0  0
M  END
> <Index>
5548

> <PropertyFieldDistance>
nan

$$$$
9787842
BBcorina  12272117083D 1   1.00000     0.00000 
CORINA 4.3.0 0026  30.10.2019
 10 10  0  0  0  0  0  0  0  0999 V2000
  -38.2713    4.4643  -44.3353 C   0  0  0  0  0  0  0  0  0  0  0  0
  -38.2288    4.4484  -45.5422 O   0  0  0  0  0  0  0  0  0  0  0  0
  -37.0533    4.0842  -43.5334 C   0  0  0  0  0  0  0  0  0  0  0  0
  -36.6371    5.2655  -42.6561 C   0  0  0  0  0  0  0  0  0  0  0  0
  -35.2759    4.9515  -42.0232 C   0  0  0  0  0  0  0  0  0  0  0  0
  -34.2216    4.9239  -43.1325 C   0  0  0  0  0  0  0  0  0  0  0  0
  -34.6999    4.0690  -44.2709 C   0  0  0  0  0  0  0  0  0  0  0  0
  -33.8831    3.6784  -45.0779 O   0  0  0  0  0  0  0  0  0  0  0  0
  -35.9754    3.7210  -44.4448 N   0  0  0  0  0  0  0  0  0  0  0  0
  -39.7642    4.9339  -43.5085 X   0  0  0  0  0  0  0  0  0  0  0  0
  1  2  2  0  0  0  0
  1  3  1  0  0  0  0
  1 10  1  0  0  0  0
  3  4  1  0  0  0  0
  3  9  1  0  0  0  0
  4  5  1  0  0  0  0
  5  6  1  0  0  0  0
  6  7  1  0  0  0  0
  7  8  2  0  0  0  0
  7  9  1  0  0  0  0
M  END
> <Index>
5561

> <PropertyFieldDistance>
nan

$$$$
16784202
BBcorina  12272117083D 1   1.00000     0.00000 
CORINA 4.3.0 0026  30.10.2019
 11 11  0  0  0  0  0  0  0  0999 V2000
  -37.1004    5.0199  -42.7453 C   0  0  0  0  0  0  0  0  0  0  0  0
  -36.4466    5.8554  -42.1685 O   0  0  0  0  0  0  0  0  0  0  0  0
  -36.4442    3.7539  -43.2330 C   0  0  0  0  0  0  0  0  0  0  0  0
  -35.0014    3.7429  -42.7483 C   0  0  0  0  0  0  0  0  0  0  0  0
  -34.5507    2.3145  -42.5662 C   0  0  0  0  0  0  0  0  0  0  0  0
  -33.8505    1.8281  -43.8492 C   0  0  0  0  0  0  0  0  0  0  0  0
  -34.5645    2.3210  -45.0949 C   0  0  0  0  0  0  0  0  0  0  0  0
  -33.9022    2.7207  -46.0222 O   0  0  0  0  0  0  0  0  0  0  0  0
  -36.0490    2.3321  -45.2201 C   0  0  0  0  0  0  0  0  0  0  0  0
  -36.6062    3.6795  -44.6942 C   0  0  0  0  0  0  0  0  0  0  0  0
  -38.8295    5.2821  -43.0179 X   0  0  0  0  0  0  0  0  0  0  0  0
  1  2  2  0  0  0  0
  1  3  1  0  0  0  0
  1 11  1  0  0  0  0
  3  4  1  0  0  0  0
  3 10  1  0  0  0  0
  4  5  1  0  0  0  0
  5  6  1  0  0  0  0
  6  7  1  0  0  0  0
  7  8  2  0  0  0  0
  7  9  1  0  0  0  0
  9 10  1  0  0  0  0
M  END
> <Index>
5651

> <PropertyFieldDistance>
nan

$$$$
14578614
BBcorina  12272117083D 1   1.00000     0.00000 
CORINA 4.3.0 0026  30.10.2019
 12 13  0  0  0  0  0  0  0  0999 V2000
  -32.4917    2.1509  -42.7862 C   0  0  0  0  0  0  0  0  0  0  0  0
  -32.4753    0.9434  -42.7929 O   0  0  0  0  0  0  0  0  0  0  0  0
  -33.8069    2.8866  -42.7760 C   0  0  0  0  0  0  0  0  0  0  0  0
  -33.9048    3.7713  -44.0200 C   0  0  0  0  0  0  0  0  0  0  0  0
  -35.2219    4.5521  -43.9875 C   0  0  0  0  0  0  0  0  0  0  0  0
  -36.3880    3.5689  -43.9106 C   0  0  0  0  0  0  0  0  0  0  0  0
  -37.7621    4.2352  -44.0550 C   0  0  0  0  0  0  0  0  0  0  0  0
  -38.1668    3.0269  -44.9170 C   0  0  0  0  0  0  0  0  0  0  0  0
  -36.6722    2.8520  -45.2368 C   0  0  0  0  0  0  0  0  0  0  0  0
  -36.2910    2.6230  -42.7154 C   0  0  0  0  0  0  0  0  0  0  0  0
  -34.9553    1.8761  -42.7702 C   0  0  0  0  0  0  0  0  0  0  0  0
  -30.9710    3.0567  -42.7959 X   0  0  0  0  0  0  0  0  0  0  0  0
  1  2  2  0  0  0  0
  1  3  1  0  0  0  0
  1 12  1  0  0  0  0
  3  4  1  0  0  0  0
  3 11  1  0  0  0  0
  4  5  1  0  0  0  0
  5  6  1  0  0  0  0
  6  7  1  0  0  0  0
  6  9  1  0  0  0  0
  6 10  1  0  0  0  0
  7  8  1  0  0  0  0
  8  9  1  0  0  0  0
 10 11  1  0  0  0  0
M  END
> <Index>
5666

> <PropertyFieldDistance>
nan

$$$$
10345384
BBcorina  12272117083D 1   1.00000     0.00000 
CORINA 4.3.0 0026  30.10.2019
  9  9  0  0  0  0  0  0  0  0999 V2000
  -33.5461    2.0561  -44.4088 C   0  0  0  0  0  0  0  0  0  0  0  0
  -33.5297    0.8486  -44.4155 O   0  0  0  0  0  0  0  0  0  0  0  0
  -34.8613    2.7918  -44.3986 C   0  0  0  0  0  0  0  0  0  0  0  0
  -34.9441    3.6641  -43.1495 C   0  0  0  0  0  0  0  0  0  0  0  0
  -36.1300    4.6208  -43.2371 C   0  0  0  0  0  0  0  0  0  0  0  0
  -37.4396    3.8407  -43.0948 C   0  0  0  0  0  0  0  0  0  0  0  0
  -37.5860    2.6809  -44.4865 S   0  0  0  0  0  0  0  0  0  0  0  0
  -36.0099    1.7796  -44.4037 C   0  0  0  0  0  0  0  0  0  0  0  0
  -32.0254    2.9619  -44.4185 X   0  0  0  0  0  0  0  0  0  0  0  0
  1  2  2  0  0  0  0
  1  3  1  0  0  0  0
  1  9  1  0  0  0  0
  3  4  1  0  0  0  0
  3  8  1  0  0  0  0
  4  5  1  0  0  0  0
  5  6  1  0  0  0  0
  6  7  1  0  0  0  0
  7  8  1  0  0  0  0
M  END
> <Index>
5677

> <PropertyFieldDistance>
nan

$$$$
15608398
BBcorina  12272117083D 1   1.00000     0.00000 
CORINA 4.3.0 0026  30.10.2019
 11 11  0  0  0  0  0  0  0  0999 V2000
  -36.3354    2.3075  -44.8786 C   0  0  0  0  0  0  0  0  0  0  0  0
  -35.9453    3.3417  -43.9110 N   0  0  0  0  0  0  0  0  0  0  0  0
  -37.0433    4.2897  -43.6828 C   0  0  0  0  0  0  0  0  0  0  0  0
  -36.6554    5.2624  -42.5667 C   0  0  0  0  0  0  0  0  0  0  0  0
  -35.3833    6.0132  -42.9700 C   0  0  0  0  0  0  0  0  0  0  0  0
  -34.2691    5.0007  -43.2489 C   0  0  0  0  0  0  0  0  0  0  0  0
  -34.7262    4.0356  -44.3451 C   0  0  0  0  0  0  0  0  0  0  0  0
  -33.6233    3.0094  -44.6128 C   0  0  0  0  0  0  0  0  0  0  0  0
  -32.4228    3.7043  -45.2020 C   0  0  0  0  0  0  0  0  0  0  0  0
  -32.4836    4.8758  -45.4882 O   0  0  0  0  0  0  0  0  0  0  0  0
  -30.9240    2.8031  -45.4744 X   0  0  0  0  0  0  0  0  0  0  0  0
  1  2  1  0  0  0  0
  2  3  1  0  0  0  0
  2  7  1  0  0  0  0
  3  4  1  0  0  0  0
  4  5  1  0  0  0  0
  5  6  1  0  0  0  0
  6  7  1  0  0  0  0
  7  8  1  0  0  0  0
  8  9  1  0  0  0  0
  9 10  2  0  0  0  0
  9 11  1  0  0  0  0
M  END
> <Index>
5693

> <PropertyFieldDistance>
nan

$$$$
10890200
BBcorina  12272117083D 1   1.00000     0.00000 
CORINA 4.3.0 0026  30.10.2019
 11 11  0  0  0  0  0  0  0  0999 V2000
  -36.3146    2.3490  -45.1225 C   0  0  0  0  0  0  0  0  0  0  0  0
  -36.0438    3.3950  -44.1332 N   0  0  0  0  0  0  0  0  0  0  0  0
  -37.0789    4.0941  -43.3627 C   0  0  0  0  0  0  0  0  0  0  0  0
  -38.2459    4.4812  -44.2731 C   0  0  0  0  0  0  0  0  0  0  0  0
  -39.3546    5.0757  -43.4435 C   0  0  0  0  0  0  0  0  0  0  0  0
  -39.2695    5.0839  -42.2389 O   0  0  0  0  0  0  0  0  0  0  0  0
  -36.3927    5.3610  -42.8053 C   0  0  0  0  0  0  0  0  0  0  0  0
  -34.9095    4.9254  -42.7672 C   0  0  0  0  0  0  0  0  0  0  0  0
  -34.8152    3.8381  -43.8148 C   0  0  0  0  0  0  0  0  0  0  0  0
  -33.7813    3.4230  -44.2939 O   0  0  0  0  0  0  0  0  0  0  0  0
  -40.7815    5.7620  -44.2346 X   0  0  0  0  0  0  0  0  0  0  0  0
  1  2  1  0  0  0  0
  2  3  1  0  0  0  0
  2  9  1  0  0  0  0
  3  4  1  0  0  0  0
  3  7  1  0  0  0  0
  4  5  1  0  0  0  0
  5  6  2  0  0  0  0
  5 11  1  0  0  0  0
  7  8  1  0  0  0  0
  8  9  1  0  0  0  0
  9 10  2  0  0  0  0
M  END
> <Index>
5696

> <PropertyFieldDistance>
nan

$$$$
16894034
BBcorina  12272117083D 1   1.00000     0.00000 
CORINA 4.3.0 0026  30.10.2019
 12 13  0  0  0  0  0  0  0  0999 V2000
  -38.2292    4.4734  -44.2575 C   0  0  0  0  0  0  0  0  0  0  0  0
  -38.0768    4.5090  -45.4548 O   0  0  0  0  0  0  0  0  0  0  0  0
  -37.0780    4.0936  -43.3621 C   0  0  0  0  0  0  0  0  0  0  0  0
  -36.3931    5.3614  -42.8053 C   0  0  0  0  0  0  0  0  0  0  0  0
  -34.9095    4.9272  -42.7671 C   0  0  0  0  0  0  0  0  0  0  0  0
  -34.8142    3.8395  -43.8143 C   0  0  0  0  0  0  0  0  0  0  0  0
  -33.7801    3.4283  -44.2966 O   0  0  0  0  0  0  0  0  0  0  0  0
  -36.0438    3.3943  -44.1337 N   0  0  0  0  0  0  0  0  0  0  0  0
  -36.3160    2.3485  -45.1229 C   0  0  0  0  0  0  0  0  0  0  0  0
  -35.8582    2.5999  -46.5610 C   0  0  0  0  0  0  0  0  0  0  0  0
  -35.1184    1.5831  -45.6894 C   0  0  0  0  0  0  0  0  0  0  0  0
  -39.8049    4.8673  -43.5539 X   0  0  0  0  0  0  0  0  0  0  0  0
  1  2  2  0  0  0  0
  1  3  1  0  0  0  0
  1 12  1  0  0  0  0
  3  4  1  0  0  0  0
  3  8  1  0  0  0  0
  4  5  1  0  0  0  0
  5  6  1  0  0  0  0
  6  7  2  0  0  0  0
  6  8  1  0  0  0  0
  8  9  1  0  0  0  0
  9 10  1  0  0  0  0
  9 11  1  0  0  0  0
 10 11  1  0  0  0  0
M  END
> <Index>
5709

> <PropertyFieldDistance>
nan

$$$$
12297756
BBcorina  12272117083D 1   1.00000     0.00000 
CORINA 4.3.0 0026  30.10.2019
 11 11  0  0  0  0  0  0  0  0999 V2000
  -36.3719    2.4847  -46.0127 C   0  0  0  0  0  0  0  0  0  0  0  0
  -36.2843    3.6605  -46.2734 O   0  0  0  0  0  0  0  0  0  0  0  0
  -36.1587    2.0085  -44.5989 C   0  0  0  0  0  0  0  0  0  0  0  0
  -35.8604    3.1582  -43.7346 N   0  0  0  0  0  0  0  0  0  0  0  0
  -36.9348    4.1619  -43.8024 C   0  0  0  0  0  0  0  0  0  0  0  0
  -36.7342    5.1730  -42.6719 C   0  0  0  0  0  0  0  0  0  0  0  0
  -35.3588    5.6635  -42.6775 N   0  0  0  0  0  0  0  0  0  0  0  0
  -34.3634    5.0287  -43.3052 C   0  0  0  0  0  0  0  0  0  0  0  0
  -33.2439    5.4894  -43.2333 O   0  0  0  0  0  0  0  0  0  0  0  0
  -34.5736    3.7682  -44.0956 C   0  0  0  0  0  0  0  0  0  0  0  0
  -36.7507    1.3206  -47.2911 X   0  0  0  0  0  0  0  0  0  0  0  0
  1  2  2  0  0  0  0
  1  3  1  0  0  0  0
  1 11  1  0  0  0  0
  3  4  1  0  0  0  0
  4  5  1  0  0  0  0
  4 10  1  0  0  0  0
  5  6  1  0  0  0  0
  6  7  1  0  0  0  0
  7  8  1  0  0  0  0
  8  9  2  0  0  0  0
  8 10  1  0  0  0  0
M  END
> <Index>
5715

> <PropertyFieldDistance>
nan

$$$$
15068212
BBcorina  12272117083D 1   1.00000     0.00000 
CORINA 4.3.0 0026  30.10.2019
 10 10  0  0  0  0  0  0  0  0999 V2000
  -35.5790    6.0151  -43.7487 C   0  0  0  0  0  0  0  0  0  0  0  0
  -35.5585    4.5082  -43.7570 C   0  0  0  0  0  0  0  0  0  0  0  0
  -35.5665    3.9074  -44.9035 C   0  0  0  0  0  0  0  0  0  0  0  0
  -35.5333    2.4165  -45.0717 C   0  0  0  0  0  0  0  0  0  0  0  0
  -35.9249    1.7308  -43.7609 C   0  0  0  0  0  0  0  0  0  0  0  0
  -35.0957    2.3445  -42.6257 C   0  0  0  0  0  0  0  0  0  0  0  0
  -35.5363    3.7975  -42.4354 C   0  0  0  0  0  0  0  0  0  0  0  0
  -35.6384    0.2543  -43.8564 C   0  0  0  0  0  0  0  0  0  0  0  0
  -34.8525   -0.2586  -43.0965 O   0  0  0  0  0  0  0  0  0  0  0  0
  -36.4540   -0.7279  -45.0823 X   0  0  0  0  0  0  0  0  0  0  0  0
  1  2  1  0  0  0  0
  2  3  2  0  0  0  0
  2  7  1  0  0  0  0
  3  4  1  0  0  0  0
  4  5  1  0  0  0  0
  5  6  1  0  0  0  0
  5  8  1  0  0  0  0
  6  7  1  0  0  0  0
  8  9  2  0  0  0  0
  8 10  1  0  0  0  0
M  END
> <Index>
5744

> <PropertyFieldDistance>
nan

$$$$
8991880
BBcorina  12272117083D 1   1.00000     0.00000 
CORINA 4.3.0 0026  30.10.2019
 10 10  0  0  0  0  0  0  0  0999 V2000
  -36.1447    0.4458  -43.7589 C   0  0  0  0  0  0  0  0  0  0  0  0
  -36.4619   -0.1631  -42.7586 O   0  0  0  0  0  0  0  0  0  0  0  0
  -36.1604    1.9083  -43.7607 C   0  0  0  0  0  0  0  0  0  0  0  0
  -36.5201    2.5632  -42.6721 C   0  0  0  0  0  0  0  0  0  0  0  0
  -36.5407    4.0772  -42.6638 C   0  0  0  0  0  0  0  0  0  0  0  0
  -35.0967    4.5841  -42.6748 C   0  0  0  0  0  0  0  0  0  0  0  0
  -34.5657    4.6697  -44.0942 C   0  0  0  0  0  0  0  0  0  0  0  0
  -34.4029    3.3218  -44.7724 C   0  0  0  0  0  0  0  0  0  0  0  0
  -35.7644    2.6650  -45.0110 C   0  0  0  0  0  0  0  0  0  0  0  0
  -35.6631   -0.4358  -45.2162 X   0  0  0  0  0  0  0  0  0  0  0  0
  1  2  2  0  0  0  0
  1  3  1  0  0  0  0
  1 10  1  0  0  0  0
  3  4  2  0  0  0  0
  3  9  1  0  0  0  0
  4  5  1  0  0  0  0
  5  6  1  0  0  0  0
  6  7  1  0  0  0  0
  7  8  1  0  0  0  0
  8  9  1  0  0  0  0
M  END
> <Index>
5746

> <PropertyFieldDistance>
nan

$$$$
8752034
BBcorina  12272117083D 1   1.00000     0.00000 
CORINA 4.3.0 0026  30.10.2019
  9  9  0  0  0  0  0  0  0  0999 V2000
  -33.6839    1.8655  -44.5531 C   0  0  0  0  0  0  0  0  0  0  0  0
  -34.0561    0.9009  -45.1771 O   0  0  0  0  0  0  0  0  0  0  0  0
  -34.6144    2.5351  -43.5749 C   0  0  0  0  0  0  0  0  0  0  0  0
  -34.8163    3.9944  -43.9889 C   0  0  0  0  0  0  0  0  0  0  0  0
  -35.9566    4.5836  -43.1489 C   0  0  0  0  0  0  0  0  0  0  0  0
  -37.2617    3.8947  -43.5535 C   0  0  0  0  0  0  0  0  0  0  0  0
  -37.0816    2.4049  -43.5574 C   0  0  0  0  0  0  0  0  0  0  0  0
  -35.9302    1.8135  -43.5662 C   0  0  0  0  0  0  0  0  0  0  0  0
  -32.0454    2.4928  -44.7874 X   0  0  0  0  0  0  0  0  0  0  0  0
  1  2  2  0  0  0  0
  1  3  1  0  0  0  0
  1  9  1  0  0  0  0
  3  4  1  0  0  0  0
  3  8  1  0  0  0  0
  4  5  1  0  0  0  0
  5  6  1  0  0  0  0
  6  7  1  0  0  0  0
  7  8  2  0  0  0  0
M  END
> <Index>
5747

> <PropertyFieldDistance>
nan

$$$$
16890400
BBcorina  12272117083D 1   1.00000     0.00000 
CORINA 4.3.0 0026  30.10.2019
 10 11  0  0  0  0  0  0  0  0999 V2000
  -35.5280    4.5338  -45.7798 C   0  0  0  0  0  0  0  0  0  0  0  0
  -36.0790    3.8497  -46.6085 O   0  0  0  0  0  0  0  0  0  0  0  0
  -34.9953    3.9060  -44.5176 C   0  0  0  0  0  0  0  0  0  0  0  0
  -35.7853    4.4307  -43.2723 C   0  0  0  0  0  0  0  0  0  0  0  0
  -36.4420    3.1598  -42.6520 C   0  0  0  0  0  0  0  0  0  0  0  0
  -35.2446    2.3542  -42.0547 C   0  0  0  0  0  0  0  0  0  0  0  0
  -34.4743    1.8325  -43.2892 C   0  0  0  0  0  0  0  0  0  0  0  0
  -35.2749    2.3720  -44.5137 C   0  0  0  0  0  0  0  0  0  0  0  0
  -36.7379    2.3245  -43.9475 C   0  0  0  0  0  0  0  0  0  0  0  0
  -35.3461    6.2740  -46.0477 X   0  0  0  0  0  0  0  0  0  0  0  0
  1  2  2  0  0  0  0
  1  3  1  0  0  0  0
  1 10  1  0  0  0  0
  3  4  1  0  0  0  0
  3  8  1  0  0  0  0
  4  5  1  0  0  0  0
  5  6  1  0  0  0  0
  5  9  1  0  0  0  0
  6  7  1  0  0  0  0
  7  8  1  0  0  0  0
  8  9  1  0  0  0  0
M  END
> <Index>
5752

> <PropertyFieldDistance>
nan

$$$$
14248030
BBcorina  12272117083D 1   1.00000     0.00000 
CORINA 4.3.0 0026  30.10.2019
  8  8  0  0  0  0  0  0  0  0999 V2000
  -35.3682    2.4004  -41.8278 C   0  0  0  0  0  0  0  0  0  0  0  0
  -36.4130    1.9491  -41.4240 O   0  0  0  0  0  0  0  0  0  0  0  0
  -35.3657    3.4091  -42.9474 C   0  0  0  0  0  0  0  0  0  0  0  0
  -34.5633    2.8715  -44.1550 C   0  0  0  0  0  0  0  0  0  0  0  0
  -35.3885    3.4220  -45.3412 C   0  0  0  0  0  0  0  0  0  0  0  0
  -36.7789    3.6188  -44.7833 C   0  0  0  0  0  0  0  0  0  0  0  0
  -36.7669    3.6118  -43.4781 C   0  0  0  0  0  0  0  0  0  0  0  0
  -33.8398    1.8772  -41.1045 X   0  0  0  0  0  0  0  0  0  0  0  0
  1  2  2  0  0  0  0
  1  3  1  0  0  0  0
  1  8  1  0  0  0  0
  3  4  1  0  0  0  0
  3  7  1  0  0  0  0
  4  5  1  0  0  0  0
  5  6  1  0  0  0  0
  6  7  2  0  0  0  0
M  END
> <Index>
5754

> <PropertyFieldDistance>
nan

$$$$
12206082
BBcorina  12272117083D 1   1.00000     0.00000 
CORINA 4.3.0 0026  30.10.2019
  9  9  0  0  0  0  0  0  0  0999 V2000
  -36.3258    2.4444  -45.0971 C   0  0  0  0  0  0  0  0  0  0  0  0
  -36.0592    3.1991  -43.8654 N   0  0  0  0  0  0  0  0  0  0  0  0
  -37.0922    4.2439  -43.6471 C   0  0  0  0  0  0  0  0  0  0  0  0
  -36.3980    5.2312  -42.6757 C   0  0  0  0  0  0  0  0  0  0  0  0
  -34.9353    5.2380  -43.1762 C   0  0  0  0  0  0  0  0  0  0  0  0
  -34.7700    3.9186  -43.9531 C   0  0  0  0  0  0  0  0  0  0  0  0
  -33.6761    3.0899  -43.3307 C   0  0  0  0  0  0  0  0  0  0  0  0
  -33.9238    1.9901  -42.8979 O   0  0  0  0  0  0  0  0  0  0  0  0
  -32.0281    3.7286  -43.2339 X   0  0  0  0  0  0  0  0  0  0  0  0
  1  2  1  0  0  0  0
  2  3  1  0  0  0  0
  2  6  1  0  0  0  0
  3  4  1  0  0  0  0
  4  5  1  0  0  0  0
  5  6  1  0  0  0  0
  6  7  1  0  0  0  0
  7  8  2  0  0  0  0
  7  9  1  0  0  0  0
M  END
> <Index>
5758

> <PropertyFieldDistance>
nan

$$$$
13263034
BBcorina  12272117083D 1   1.00000     0.00000 
CORINA 4.3.0 0026  30.10.2019
 10 10  0  0  0  0  0  0  0  0999 V2000
  -35.9129    2.5639  -46.5127 C   0  0  0  0  0  0  0  0  0  0  0  0
  -36.8744    3.2811  -46.3732 O   0  0  0  0  0  0  0  0  0  0  0  0
  -35.0972    2.1554  -45.3132 C   0  0  0  0  0  0  0  0  0  0  0  0
  -35.6966    2.7805  -44.0519 C   0  0  0  0  0  0  0  0  0  0  0  0
  -34.9463    2.2682  -42.8160 C   0  0  0  0  0  0  0  0  0  0  0  0
  -35.6710    2.7659  -41.5635 C   0  0  0  0  0  0  0  0  0  0  0  0
  -35.9367    4.2399  -41.6726 C   0  0  0  0  0  0  0  0  0  0  0  0
  -35.8856    4.9073  -42.7805 C   0  0  0  0  0  0  0  0  0  0  0  0
  -35.5483    4.3024  -44.1118 C   0  0  0  0  0  0  0  0  0  0  0  0
  -35.4616    1.9926  -48.1261 X   0  0  0  0  0  0  0  0  0  0  0  0
  1  2  2  0  0  0  0
  1  3  1  0  0  0  0
  1 10  1  0  0  0  0
  3  4  1  0  0  0  0
  4  5  1  0  0  0  0
  4  9  1  0  0  0  0
  5  6  1  0  0  0  0
  6  7  1  0  0  0  0
  7  8  2  0  0  0  0
  8  9  1  0  0  0  0
M  END
> <Index>
5765

> <PropertyFieldDistance>
nan

$$$$
10892132
BBcorina  12272117083D 1   1.00000     0.00000 
CORINA 4.3.0 0026  30.10.2019
 10 10  0  0  0  0  0  0  0  0999 V2000
  -33.2778    4.5405  -43.5926 C   0  0  0  0  0  0  0  0  0  0  0  0
  -34.5598    3.7469  -43.3329 C   0  0  0  0  0  0  0  0  0  0  0  0
  -35.7111    4.3463  -44.1497 C   0  0  0  0  0  0  0  0  0  0  0  0
  -37.0141    3.6659  -43.7252 C   0  0  0  0  0  0  0  0  0  0  0  0
  -36.8478    2.1742  -43.7492 C   0  0  0  0  0  0  0  0  0  0  0  0
  -35.6751    1.5674  -43.7582 C   0  0  0  0  0  0  0  0  0  0  0  0
  -34.3612    2.2932  -43.7669 C   0  0  0  0  0  0  0  0  0  0  0  0
  -38.0531    1.3458  -43.7570 C   0  0  0  0  0  0  0  0  0  0  0  0
  -37.9579    0.1363  -43.7714 O   0  0  0  0  0  0  0  0  0  0  0  0
  -39.6507    2.1077  -43.7454 X   0  0  0  0  0  0  0  0  0  0  0  0
  1  2  1  0  0  0  0
  2  3  1  0  0  0  0
  2  7  1  0  0  0  0
  3  4  1  0  0  0  0
  4  5  1  0  0  0  0
  5  6  2  0  0  0  0
  5  8  1  0  0  0  0
  6  7  1  0  0  0  0
  8  9  2  0  0  0  0
  8 10  1  0  0  0  0
M  END
> <Index>
5769

> <PropertyFieldDistance>
nan

$$$$
17315556
BBcorina  12272117083D 1   1.00000     0.00000 
CORINA 4.3.0 0026  30.10.2019
 10 10  0  0  0  0  0  0  0  0999 V2000
  -35.5790    6.0151  -43.7487 C   0  0  0  0  0  0  0  0  0  0  0  0
  -35.5585    4.5082  -43.7570 C   0  0  0  0  0  0  0  0  0  0  0  0
  -35.5665    3.9074  -44.9035 C   0  0  0  0  0  0  0  0  0  0  0  0
  -35.5333    2.4165  -45.0717 C   0  0  0  0  0  0  0  0  0  0  0  0
  -35.9249    1.7308  -43.7609 C   0  0  0  0  0  0  0  0  0  0  0  0
  -35.0957    2.3445  -42.6257 C   0  0  0  0  0  0  0  0  0  0  0  0
  -35.5363    3.7975  -42.4354 C   0  0  0  0  0  0  0  0  0  0  0  0
  -35.6384    0.2543  -43.8564 C   0  0  0  0  0  0  0  0  0  0  0  0
  -34.8525   -0.2586  -43.0965 O   0  0  0  0  0  0  0  0  0  0  0  0
  -36.4540   -0.7279  -45.0823 X   0  0  0  0  0  0  0  0  0  0  0  0
  1  2  1  0  0  0  0
  2  3  2  0  0  0  0
  2  7  1  0  0  0  0
  3  4  1  0  0  0  0
  4  5  1  0  0  0  0
  5  6  1  0  0  0  0
  5  8  1  0  0  0  0
  6  7  1  0  0  0  0
  8  9  2  0  0  0  0
  8 10  1  0  0  0  0
M  END
> <Index>
5776

> <PropertyFieldDistance>
nan

$$$$
6474214
BBcorina  12272117083D 1   1.00000     0.00000 
CORINA 4.3.0 0026  30.10.2019
 10 10  0  0  0  0  0  0  0  0999 V2000
  -36.3495    2.3569  -44.9462 C   0  0  0  0  0  0  0  0  0  0  0  0
  -36.0375    3.6630  -44.3509 N   0  0  0  0  0  0  0  0  0  0  0  0
  -36.9514    3.9682  -43.2427 C   0  0  0  0  0  0  0  0  0  0  0  0
  -36.6926    5.3915  -42.7434 C   0  0  0  0  0  0  0  0  0  0  0  0
  -35.2387    5.5070  -42.2771 C   0  0  0  0  0  0  0  0  0  0  0  0
  -34.3074    5.1368  -43.4348 C   0  0  0  0  0  0  0  0  0  0  0  0
  -34.6364    3.7214  -43.9151 C   0  0  0  0  0  0  0  0  0  0  0  0
  -33.7362    3.3607  -45.0685 C   0  0  0  0  0  0  0  0  0  0  0  0
  -34.0848    3.5912  -46.2015 O   0  0  0  0  0  0  0  0  0  0  0  0
  -32.1679    2.5991  -44.7627 X   0  0  0  0  0  0  0  0  0  0  0  0
  1  2  1  0  0  0  0
  2  3  1  0  0  0  0
  2  7  1  0  0  0  0
  3  4  1  0  0  0  0
  4  5  1  0  0  0  0
  5  6  1  0  0  0  0
  6  7  1  0  0  0  0
  7  8  1  0  0  0  0
  8  9  2  0  0  0  0
  8 10  1  0  0  0  0
M  END
> <Index>
5791

> <PropertyFieldDistance>
nan

$$$$
15070560
BBcorina  12272117083D 1   1.00000     0.00000 
CORINA 4.3.0 0026  30.10.2019
 10 10  0  0  0  0  0  0  0  0999 V2000
  -35.9129    2.5639  -46.5127 C   0  0  0  0  0  0  0  0  0  0  0  0
  -36.8744    3.2811  -46.3732 O   0  0  0  0  0  0  0  0  0  0  0  0
  -35.0972    2.1554  -45.3132 C   0  0  0  0  0  0  0  0  0  0  0  0
  -35.6966    2.7805  -44.0519 C   0  0  0  0  0  0  0  0  0  0  0  0
  -34.9463    2.2682  -42.8160 C   0  0  0  0  0  0  0  0  0  0  0  0
  -35.6710    2.7659  -41.5635 C   0  0  0  0  0  0  0  0  0  0  0  0
  -35.9367    4.2399  -41.6726 C   0  0  0  0  0  0  0  0  0  0  0  0
  -35.8856    4.9073  -42.7805 C   0  0  0  0  0  0  0  0  0  0  0  0
  -35.5483    4.3024  -44.1118 C   0  0  0  0  0  0  0  0  0  0  0  0
  -35.4616    1.9926  -48.1261 X   0  0  0  0  0  0  0  0  0  0  0  0
  1  2  2  0  0  0  0
  1  3  1  0  0  0  0
  1 10  1  0  0  0  0
  3  4  1  0  0  0  0
  4  5  1  0  0  0  0
  4  9  1  0  0  0  0
  5  6  1  0  0  0  0
  6  7  1  0  0  0  0
  7  8  2  0  0  0  0
  8  9  1  0  0  0  0
M  END
> <Index>
5847

> <PropertyFieldDistance>
nan

$$$$
7838508
BBcorina  12272117083D 1   1.00000     0.00000 
CORINA 4.3.0 0026  30.10.2019
 11 11  0  0  0  0  0  0  0  0999 V2000
  -36.3568    2.2448  -44.7139 C   0  0  0  0  0  0  0  0  0  0  0  0
  -35.9928    3.5607  -44.1828 N   0  0  0  0  0  0  0  0  0  0  0  0
  -36.9772    4.4621  -43.8659 C   0  0  0  0  0  0  0  0  0  0  0  0
  -36.6492    5.7013  -43.3663 C   0  0  0  0  0  0  0  0  0  0  0  0
  -35.3000    6.0433  -43.1804 C   0  0  0  0  0  0  0  0  0  0  0  0
  -34.3318    5.1400  -43.4933 C   0  0  0  0  0  0  0  0  0  0  0  0
  -34.6950    3.8753  -44.0101 C   0  0  0  0  0  0  0  0  0  0  0  0
  -33.8301    3.0645  -44.2958 O   0  0  0  0  0  0  0  0  0  0  0  0
  -38.3903    4.1018  -44.0609 C   0  0  0  0  0  0  0  0  0  0  0  0
  -39.2627    4.8965  -43.7817 O   0  0  0  0  0  0  0  0  0  0  0  0
  -38.8169    2.5085  -44.7028 X   0  0  0  0  0  0  0  0  0  0  0  0
  1  2  1  0  0  0  0
  2  3  1  0  0  0  0
  2  7  1  0  0  0  0
  3  4  2  0  0  0  0
  3  9  1  0  0  0  0
  4  5  1  0  0  0  0
  5  6  2  0  0  0  0
  6  7  1  0  0  0  0
  7  8  2  0  0  0  0
  9 10  2  0  0  0  0
  9 11  1  0  0  0  0
M  END
> <Index>
5905

> <PropertyFieldDistance>
nan

$$$$
10211970
BBcorina  12272117083D 1   1.00000     0.00000 
CORINA 4.3.0 0026  30.10.2019
 13 14  0  0  0  0  0  0  0  0999 V2000
  -36.4457    2.2271  -44.7329 C   0  0  0  0  0  0  0  0  0  0  0  0
  -35.9458    3.4991  -44.2051 N   0  0  0  0  0  0  0  0  0  0  0  0
  -36.6994    4.5556  -43.8003 C   0  0  0  0  0  0  0  0  0  0  0  0
  -35.9287    5.5226  -43.3883 N   0  0  0  0  0  0  0  0  0  0  0  0
  -34.6398    5.1537  -43.5005 C   0  0  0  0  0  0  0  0  0  0  0  0
  -33.4108    5.7860  -43.2106 C   0  0  0  0  0  0  0  0  0  0  0  0
  -32.2341    5.0725  -43.4651 C   0  0  0  0  0  0  0  0  0  0  0  0
  -32.3161    3.7933  -43.9835 C   0  0  0  0  0  0  0  0  0  0  0  0
  -33.4770    3.2277  -44.2445 N   0  0  0  0  0  0  0  0  0  0  0  0
  -34.6228    3.8473  -44.0271 C   0  0  0  0  0  0  0  0  0  0  0  0
  -33.3689    7.1485  -42.6592 C   0  0  0  0  0  0  0  0  0  0  0  0
  -34.4010    7.7485  -42.4464 O   0  0  0  0  0  0  0  0  0  0  0  0
  -31.8120    7.9127  -42.3060 X   0  0  0  0  0  0  0  0  0  0  0  0
  1  2  1  0  0  0  0
  2  3  1  0  0  0  0
  2 10  1  0  0  0  0
  3  4  2  0  0  0  0
  4  5  1  0  0  0  0
  5  6  2  0  0  0  0
  5 10  1  0  0  0  0
  6  7  1  0  0  0  0
  6 11  1  0  0  0  0
  7  8  2  0  0  0  0
  8  9  1  0  0  0  0
  9 10  2  0  0  0  0
 11 12  2  0  0  0  0
 11 13  1  0  0  0  0
M  END
> <Index>
5914

> <PropertyFieldDistance>
nan

$$$$
9818002
BBcorina  12272117083D 1   1.00000     0.00000 
CORINA 4.3.0 0026  30.10.2019
 14 14  0  0  0  0  0  0  0  0999 V2000
  -36.6552    2.9861  -46.9109 F   0  0  0  0  0  0  0  0  0  0  0  0
  -36.9047    2.0356  -45.9152 C   0  0  0  0  0  0  0  0  0  0  0  0
  -36.8773    0.7543  -46.4762 F   0  0  0  0  0  0  0  0  0  0  0  0
  -38.1632    2.2708  -45.3509 F   0  0  0  0  0  0  0  0  0  0  0  0
  -35.8315    2.1402  -44.8297 C   0  0  0  0  0  0  0  0  0  0  0  0
  -35.7624    3.5238  -44.3412 N   0  0  0  0  0  0  0  0  0  0  0  0
  -36.8800    3.8185  -43.4353 C   0  0  0  0  0  0  0  0  0  0  0  0
  -36.8585    5.3026  -43.0626 C   0  0  0  0  0  0  0  0  0  0  0  0
  -35.5264    5.6343  -42.3845 C   0  0  0  0  0  0  0  0  0  0  0  0
  -34.3775    5.2731  -43.3300 C   0  0  0  0  0  0  0  0  0  0  0  0
  -34.4709    3.7899  -43.6951 C   0  0  0  0  0  0  0  0  0  0  0  0
  -35.4749    7.1070  -42.0689 C   0  0  0  0  0  0  0  0  0  0  0  0
  -34.6055    7.7966  -42.5455 O   0  0  0  0  0  0  0  0  0  0  0  0
  -36.6885    7.8261  -40.9998 X   0  0  0  0  0  0  0  0  0  0  0  0
  1  2  1  0  0  0  0
  2  3  1  0  0  0  0
  2  4  1  0  0  0  0
  2  5  1  0  0  0  0
  5  6  1  0  0  0  0
  6  7  1  0  0  0  0
  6 11  1  0  0  0  0
  7  8  1  0  0  0  0
  8  9  1  0  0  0  0
  9 10  1  0  0  0  0
  9 12  1  0  0  0  0
 10 11  1  0  0  0  0
 12 13  2  0  0  0  0
 12 14  1  0  0  0  0
M  END
> <Index>
5937

> <PropertyFieldDistance>
nan

$$$$
5182286
BBcorina  12272117083D 1   1.00000     0.00000 
CORINA 4.3.0 0026  30.10.2019
 16 17  0  0  0  0  0  0  0  0999 V2000
  -37.0025    1.6627  -45.3703 C   0  0  0  0  0  0  0  0  0  0  0  0
  -37.4003    1.3606  -44.2708 O   0  0  0  0  0  0  0  0  0  0  0  0
  -35.9432    2.7236  -45.5231 C   0  0  0  0  0  0  0  0  0  0  0  0
  -35.6703    3.3350  -44.2155 N   0  0  0  0  0  0  0  0  0  0  0  0
  -36.8379    4.0836  -43.7301 C   0  0  0  0  0  0  0  0  0  0  0  0
  -36.5417    4.6367  -42.3341 C   0  0  0  0  0  0  0  0  0  0  0  0
  -35.3541    5.5001  -42.3940 N   0  0  0  0  0  0  0  0  0  0  0  0
  -34.1863    4.7515  -42.8794 C   0  0  0  0  0  0  0  0  0  0  0  0
  -34.4826    4.1983  -44.2754 C   0  0  0  0  0  0  0  0  0  0  0  0
  -35.0958    6.0786  -41.1567 C   0  0  0  0  0  0  0  0  0  0  0  0
  -34.0081    6.9327  -41.0088 C   0  0  0  0  0  0  0  0  0  0  0  0
  -33.7629    7.5019  -39.7720 C   0  0  0  0  0  0  0  0  0  0  0  0
  -34.6171    7.1965  -38.7210 C   0  0  0  0  0  0  0  0  0  0  0  0
  -35.6782    6.3403  -38.9388 C   0  0  0  0  0  0  0  0  0  0  0  0
  -35.8907    5.8159  -40.1307 N   0  0  0  0  0  0  0  0  0  0  0  0
  -37.6636    0.8594  -46.8023 X   0  0  0  0  0  0  0  0  0  0  0  0
  1  2  2  0  0  0  0
  1  3  1  0  0  0  0
  1 16  1  0  0  0  0
  3  4  1  0  0  0  0
  4  5  1  0  0  0  0
  4  9  1  0  0  0  0
  5  6  1  0  0  0  0
  6  7  1  0  0  0  0
  7  8  1  0  0  0  0
  7 10  1  0  0  0  0
  8  9  1  0  0  0  0
 10 11  2  0  0  0  0
 10 15  1  0  0  0  0
 11 12  1  0  0  0  0
 12 13  2  0  0  0  0
 13 14  1  0  0  0  0
 14 15  2  0  0  0  0
M  END
> <Index>
5993

> <PropertyFieldDistance>
nan

$$$$
9421594
BBcorina  12272117083D 1   1.00000     0.00000 
CORINA 4.3.0 0026  30.10.2019
 12 12  0  0  0  0  0  0  0  0999 V2000
  -35.0400    6.3365  -41.2714 C   0  0  0  0  0  0  0  0  0  0  0  0
  -35.3579    5.3963  -42.4053 C   0  0  0  0  0  0  0  0  0  0  0  0
  -36.6784    4.9860  -42.6368 C   0  0  0  0  0  0  0  0  0  0  0  0
  -36.9543    4.1412  -43.6577 C   0  0  0  0  0  0  0  0  0  0  0  0
  -35.9638    3.6830  -44.4653 N   0  0  0  0  0  0  0  0  0  0  0  0
  -36.2891    2.7690  -45.5630 C   0  0  0  0  0  0  0  0  0  0  0  0
  -36.2079    1.3463  -45.0729 C   0  0  0  0  0  0  0  0  0  0  0  0
  -35.9092    1.1193  -43.9251 O   0  0  0  0  0  0  0  0  0  0  0  0
  -34.6858    4.0588  -44.2684 C   0  0  0  0  0  0  0  0  0  0  0  0
  -33.8062    3.6379  -45.0028 O   0  0  0  0  0  0  0  0  0  0  0  0
  -34.3635    4.9306  -43.2144 C   0  0  0  0  0  0  0  0  0  0  0  0
  -36.5505    0.0081  -46.1796 X   0  0  0  0  0  0  0  0  0  0  0  0
  1  2  1  0  0  0  0
  2  3  1  0  0  0  0
  2 11  2  0  0  0  0
  3  4  2  0  0  0  0
  4  5  1  0  0  0  0
  5  6  1  0  0  0  0
  5  9  1  0  0  0  0
  6  7  1  0  0  0  0
  7  8  2  0  0  0  0
  7 12  1  0  0  0  0
  9 10  2  0  0  0  0
  9 11  1  0  0  0  0
M  END
> <Index>
6025

> <PropertyFieldDistance>
nan

$$$$
5535468
BBcorina  12272117083D 1   1.00000     0.00000 
CORINA 4.3.0 0026  30.10.2019
 16 16  0  0  0  0  0  0  0  0999 V2000
  -40.0442    0.5523  -47.6250 C   0  0  0  0  0  0  0  0  0  0  0  0
  -39.5970    1.3264  -46.3834 C   0  0  0  0  0  0  0  0  0  0  0  0
  -39.9572    0.5292  -45.1282 C   0  0  0  0  0  0  0  0  0  0  0  0
  -38.0830    1.5413  -46.4343 C   0  0  0  0  0  0  0  0  0  0  0  0
  -37.6713    2.3837  -45.3086 N   0  0  0  0  0  0  0  0  0  0  0  0
  -36.3728    2.7078  -45.1490 C   0  0  0  0  0  0  0  0  0  0  0  0
  -35.5564    2.3777  -45.9873 O   0  0  0  0  0  0  0  0  0  0  0  0
  -35.9793    3.3979  -44.0602 N   0  0  0  0  0  0  0  0  0  0  0  0
  -36.9670    3.9022  -43.0963 C   0  0  0  0  0  0  0  0  0  0  0  0
  -36.7430    5.4051  -42.9017 C   0  0  0  0  0  0  0  0  0  0  0  0
  -35.2877    5.6518  -42.4978 C   0  0  0  0  0  0  0  0  0  0  0  0
  -34.3578    5.1651  -43.6116 C   0  0  0  0  0  0  0  0  0  0  0  0
  -34.5547    3.6596  -43.8142 C   0  0  0  0  0  0  0  0  0  0  0  0
  -32.9265    5.4379  -43.2269 C   0  0  0  0  0  0  0  0  0  0  0  0
  -32.6758    5.9743  -42.1743 O   0  0  0  0  0  0  0  0  0  0  0  0
  -31.6132    4.9789  -44.3211 X   0  0  0  0  0  0  0  0  0  0  0  0
  1  2  1  0  0  0  0
  2  3  1  0  0  0  0
  2  4  1  0  0  0  0
  4  5  1  0  0  0  0
  5  6  1  0  0  0  0
  6  7  2  0  0  0  0
  6  8  1  0  0  0  0
  8  9  1  0  0  0  0
  8 13  1  0  0  0  0
  9 10  1  0  0  0  0
 10 11  1  0  0  0  0
 11 12  1  0  0  0  0
 12 13  1  0  0  0  0
 12 14  1  0  0  0  0
 14 15  2  0  0  0  0
 14 16  1  0  0  0  0
M  END
> <Index>
6144

> <PropertyFieldDistance>
nan

$$$$
18235554
BBcorina  12272117083D 1   1.00000     0.00000 
CORINA 4.3.0 0026  30.10.2019
 12 13  0  0  0  0  0  0  0  0999 V2000
  -33.4161    5.1640  -43.7323 C   0  0  0  0  0  0  0  0  0  0  0  0
  -33.4064    5.9440  -42.8105 O   0  0  0  0  0  0  0  0  0  0  0  0
  -34.3881    3.9963  -43.7291 C   0  0  0  0  0  0  0  0  0  0  0  0
  -35.2377    4.0812  -44.9883 C   0  0  0  0  0  0  0  0  0  0  0  0
  -36.4509    3.1641  -44.9508 C   0  0  0  0  0  0  0  0  0  0  0  0
  -36.0557    1.6954  -44.9939 C   0  0  0  0  0  0  0  0  0  0  0  0
  -35.3395    1.2364  -43.7346 C   0  0  0  0  0  0  0  0  0  0  0  0
  -36.0313    1.6817  -42.4568 C   0  0  0  0  0  0  0  0  0  0  0  0
  -36.4269    3.1509  -42.4764 C   0  0  0  0  0  0  0  0  0  0  0  0
  -35.2129    4.0674  -42.4526 C   0  0  0  0  0  0  0  0  0  0  0  0
  -37.2877    3.4483  -43.7038 C   0  0  0  0  0  0  0  0  0  0  0  0
  -32.2979    5.3810  -45.0870 X   0  0  0  0  0  0  0  0  0  0  0  0
  1  2  2  0  0  0  0
  1  3  1  0  0  0  0
  1 12  1  0  0  0  0
  3  4  1  0  0  0  0
  3 10  1  0  0  0  0
  4  5  1  0  0  0  0
  5  6  1  0  0  0  0
  5 11  1  0  0  0  0
  6  7  1  0  0  0  0
  7  8  1  0  0  0  0
  8  9  1  0  0  0  0
  9 10  1  0  0  0  0
  9 11  1  0  0  0  0
M  END
> <Index>
6204

> <PropertyFieldDistance>
nan

$$$$
9458006
BBcorina  12272117083D 1   1.00000     0.00000 
CORINA 4.3.0 0026  30.10.2019
 11 11  0  0  0  0  0  0  0  0999 V2000
  -36.2266    1.3416  -45.0089 C   0  0  0  0  0  0  0  0  0  0  0  0
  -35.9839    1.1604  -43.8399 O   0  0  0  0  0  0  0  0  0  0  0  0
  -36.2606    2.7426  -45.5631 C   0  0  0  0  0  0  0  0  0  0  0  0
  -35.9689    3.6986  -44.4920 N   0  0  0  0  0  0  0  0  0  0  0  0
  -37.0793    4.2385  -43.7110 C   0  0  0  0  0  0  0  0  0  0  0  0
  -36.5535    4.8248  -42.3968 C   0  0  0  0  0  0  0  0  0  0  0  0
  -35.4528    5.6920  -42.6938 O   0  0  0  0  0  0  0  0  0  0  0  0
  -34.3007    4.9898  -43.1670 C   0  0  0  0  0  0  0  0  0  0  0  0
  -34.6958    4.0478  -44.2702 C   0  0  0  0  0  0  0  0  0  0  0  0
  -33.8303    3.5885  -44.9849 O   0  0  0  0  0  0  0  0  0  0  0  0
  -36.5426   -0.0383  -46.0714 X   0  0  0  0  0  0  0  0  0  0  0  0
  1  2  2  0  0  0  0
  1  3  1  0  0  0  0
  1 11  1  0  0  0  0
  3  4  1  0  0  0  0
  4  5  1  0  0  0  0
  4  9  1  0  0  0  0
  5  6  1  0  0  0  0
  6  7  1  0  0  0  0
  7  8  1  0  0  0  0
  8  9  1  0  0  0  0
  9 10  2  0  0  0  0
M  END
> <Index>
6252

> <PropertyFieldDistance>
nan

$$$$
15560990
BBcorina  12272117083D 1   1.00000     0.00000 
CORINA 4.3.0 0026  30.10.2019
 12 13  0  0  0  0  0  0  0  0999 V2000
  -34.2574    5.7996  -44.4207 C   0  0  0  0  0  0  0  0  0  0  0  0
  -33.4513    5.9756  -43.5390 O   0  0  0  0  0  0  0  0  0  0  0  0
  -35.0863    4.5412  -44.4437 C   0  0  0  0  0  0  0  0  0  0  0  0
  -36.5698    4.9060  -44.3637 C   0  0  0  0  0  0  0  0  0  0  0  0
  -37.4177    3.6346  -44.4287 C   0  0  0  0  0  0  0  0  0  0  0  0
  -37.0856    2.7389  -43.2317 C   0  0  0  0  0  0  0  0  0  0  0  0
  -35.5934    2.4140  -43.2452 C   0  0  0  0  0  0  0  0  0  0  0  0
  -35.2008    1.3866  -44.3147 C   0  0  0  0  0  0  0  0  0  0  0  0
  -34.2545    0.7776  -43.2657 C   0  0  0  0  0  0  0  0  0  0  0  0
  -35.1806    1.3753  -42.1922 C   0  0  0  0  0  0  0  0  0  0  0  0
  -34.7127    3.6618  -43.2469 C   0  0  0  0  0  0  0  0  0  0  0  0
  -34.4655    7.0196  -45.6861 X   0  0  0  0  0  0  0  0  0  0  0  0
  1  2  2  0  0  0  0
  1  3  1  0  0  0  0
  1 12  1  0  0  0  0
  3  4  1  0  0  0  0
  3 11  1  0  0  0  0
  4  5  1  0  0  0  0
  5  6  1  0  0  0  0
  6  7  1  0  0  0  0
  7  8  1  0  0  0  0
  7 10  1  0  0  0  0
  7 11  1  0  0  0  0
  8  9  1  0  0  0  0
  9 10  1  0  0  0  0
M  END
> <Index>
6254

> <PropertyFieldDistance>
nan

$$$$
13774648
BBcorina  12272117083D 1   1.00000     0.00000 
CORINA 4.3.0 0026  30.10.2019
 12 13  0  0  0  0  0  0  0  0999 V2000
  -36.3264    2.3311  -45.0154 C   0  0  0  0  0  0  0  0  0  0  0  0
  -37.4671    1.9988  -45.2586 O   0  0  0  0  0  0  0  0  0  0  0  0
  -36.0884    3.3727  -44.1938 N   0  0  0  0  0  0  0  0  0  0  0  0
  -37.0934    4.1999  -43.5187 C   0  0  0  0  0  0  0  0  0  0  0  0
  -36.3619    5.2389  -42.7071 C   0  0  0  0  0  0  0  0  0  0  0  0
  -36.8299    6.2548  -41.8919 C   0  0  0  0  0  0  0  0  0  0  0  0
  -35.9393    7.0901  -41.2449 C   0  0  0  0  0  0  0  0  0  0  0  0
  -34.5790    6.9110  -41.4116 C   0  0  0  0  0  0  0  0  0  0  0  0
  -34.1111    5.8967  -42.2254 C   0  0  0  0  0  0  0  0  0  0  0  0
  -35.0027    5.0600  -42.8740 C   0  0  0  0  0  0  0  0  0  0  0  0
  -34.7750    3.8947  -43.8033 C   0  0  0  0  0  0  0  0  0  0  0  0
  -34.9740    1.4481  -45.7395 X   0  0  0  0  0  0  0  0  0  0  0  0
  1  2  2  0  0  0  0
  1  3  1  0  0  0  0
  1 12  1  0  0  0  0
  3  4  1  0  0  0  0
  3 11  1  0  0  0  0
  4  5  1  0  0  0  0
  5  6  2  0  0  0  0
  5 10  1  0  0  0  0
  6  7  1  0  0  0  0
  7  8  2  0  0  0  0
  8  9  1  0  0  0  0
  9 10  2  0  0  0  0
 10 11  1  0  0  0  0
M  END
> <Index>
6276

> <PropertyFieldDistance>
nan

$$$$
6007600
BBcorina  12272117083D 1   1.00000     0.00000 
CORINA 4.3.0 0026  30.10.2019
 11 11  0  0  0  0  0  0  0  0999 V2000
  -36.9954    1.9959  -45.8098 C   0  0  0  0  0  0  0  0  0  0  0  0
  -35.7751    2.1682  -44.9031 C   0  0  0  0  0  0  0  0  0  0  0  0
  -35.7341    3.5454  -44.3937 N   0  0  0  0  0  0  0  0  0  0  0  0
  -36.8684    3.8091  -43.4963 C   0  0  0  0  0  0  0  0  0  0  0  0
  -36.8201    5.2688  -43.0370 C   0  0  0  0  0  0  0  0  0  0  0  0
  -35.5613    5.5240  -42.4079 O   0  0  0  0  0  0  0  0  0  0  0  0
  -34.4336    5.2780  -43.2538 C   0  0  0  0  0  0  0  0  0  0  0  0
  -34.4588    3.8184  -43.7152 C   0  0  0  0  0  0  0  0  0  0  0  0
  -33.1620    5.5422  -42.4894 C   0  0  0  0  0  0  0  0  0  0  0  0
  -33.2103    5.8204  -41.3152 O   0  0  0  0  0  0  0  0  0  0  0  0
  -31.5981    5.4448  -43.3123 X   0  0  0  0  0  0  0  0  0  0  0  0
  1  2  1  0  0  0  0
  2  3  1  0  0  0  0
  3  4  1  0  0  0  0
  3  8  1  0  0  0  0
  4  5  1  0  0  0  0
  5  6  1  0  0  0  0
  6  7  1  0  0  0  0
  7  8  1  0  0  0  0
  7  9  1  0  0  0  0
  9 10  2  0  0  0  0
  9 11  1  0  0  0  0
M  END
> <Index>
6474

> <PropertyFieldDistance>
nan

$$$$
12129596
BBcorina  12272117083D 1   1.00000     0.00000 
CORINA 4.3.0 0026  30.10.2019
 17 17  0  0  0  0  0  0  0  0999 V2000
  -36.4290    2.7521  -45.3179 C   0  0  0  0  0  0  0  0  0  0  0  0
  -35.9873    3.3466  -44.0493 N   0  0  0  0  0  0  0  0  0  0  0  0
  -36.9972    4.2745  -43.5230 C   0  0  0  0  0  0  0  0  0  0  0  0
  -36.5827    4.7293  -42.1146 C   0  0  0  0  0  0  0  0  0  0  0  0
  -35.2180    5.2728  -42.1884 N   0  0  0  0  0  0  0  0  0  0  0  0
  -34.1767    4.4544  -42.8280 C   0  0  0  0  0  0  0  0  0  0  0  0
  -34.6847    4.0080  -44.2031 C   0  0  0  0  0  0  0  0  0  0  0  0
  -33.7005    3.0442  -44.8142 C   0  0  0  0  0  0  0  0  0  0  0  0
  -33.8205    1.8576  -44.6251 O   0  0  0  0  0  0  0  0  0  0  0  0
  -34.9281    6.4862  -41.6784 C   0  0  0  0  0  0  0  0  0  0  0  0
  -33.7929    6.9154  -41.7392 O   0  0  0  0  0  0  0  0  0  0  0  0
  -35.8953    7.2204  -41.0967 O   0  0  0  0  0  0  0  0  0  0  0  0
  -35.5096    8.5149  -40.5638 C   0  0  0  0  0  0  0  0  0  0  0  0
  -34.9547    9.3862  -41.6925 C   0  0  0  0  0  0  0  0  0  0  0  0
  -36.7322    9.1972  -39.9469 C   0  0  0  0  0  0  0  0  0  0  0  0
  -34.4356    8.3253  -39.4907 C   0  0  0  0  0  0  0  0  0  0  0  0
  -32.3684    3.6515  -45.8091 X   0  0  0  0  0  0  0  0  0  0  0  0
  1  2  1  0  0  0  0
  2  3  1  0  0  0  0
  2  7  1  0  0  0  0
  3  4  1  0  0  0  0
  4  5  1  0  0  0  0
  5  6  1  0  0  0  0
  5 10  1  0  0  0  0
  6  7  1  0  0  0  0
  7  8  1  0  0  0  0
  8  9  2  0  0  0  0
  8 17  1  0  0  0  0
 10 11  2  0  0  0  0
 10 12  1  0  0  0  0
 12 13  1  0  0  0  0
 13 14  1  0  0  0  0
 13 15  1  0  0  0  0
 13 16  1  0  0  0  0
M  END
> <Index>
6482

> <PropertyFieldDistance>
nan

$$$$
13142054
BBcorina  12272117083D 1   1.00000     0.00000 
CORINA 4.3.0 0026  30.10.2019
 10 10  0  0  0  0  0  0  0  0999 V2000
  -35.8707    4.7652  -45.8578 Cl  0  0  0  0  0  0  0  0  0  0  0  0
  -36.8032    4.3088  -44.3836 C   0  0  0  0  0  0  0  0  0  0  0  0
  -36.0000    4.6825  -43.1362 C   0  0  0  0  0  0  0  0  0  0  0  0
  -34.6648    3.9356  -43.1465 C   0  0  0  0  0  0  0  0  0  0  0  0
  -34.9239    2.4277  -43.1535 C   0  0  0  0  0  0  0  0  0  0  0  0
  -35.7270    2.0540  -44.4010 C   0  0  0  0  0  0  0  0  0  0  0  0
  -37.0623    2.8009  -44.3906 C   0  0  0  0  0  0  0  0  0  0  0  0
  -33.6087    1.6920  -43.1637 C   0  0  0  0  0  0  0  0  0  0  0  0
  -32.5712    2.3100  -43.1703 O   0  0  0  0  0  0  0  0  0  0  0  0
  -33.5847   -0.0778  -43.1735 X   0  0  0  0  0  0  0  0  0  0  0  0
  1  2  1  0  0  0  0
  2  3  1  0  0  0  0
  2  7  1  0  0  0  0
  3  4  1  0  0  0  0
  4  5  1  0  0  0  0
  5  6  1  0  0  0  0
  5  8  1  0  0  0  0
  6  7  1  0  0  0  0
  8  9  2  0  0  0  0
  8 10  1  0  0  0  0
M  END
> <Index>
6489

> <PropertyFieldDistance>
nan

$$$$
10464944
BBcorina  12272117083D 1   1.00000     0.00000 
CORINA 4.3.0 0026  30.10.2019
 11 12  0  0  0  0  0  0  0  0999 V2000
  -35.4435    1.7043  -41.7236 C   0  0  0  0  0  0  0  0  0  0  0  0
  -34.9876    2.4909  -40.9288 O   0  0  0  0  0  0  0  0  0  0  0  0
  -36.1723    2.2035  -42.9445 C   0  0  0  0  0  0  0  0  0  0  0  0
  -35.4562    1.7101  -44.2033 C   0  0  0  0  0  0  0  0  0  0  0  0
  -34.9995    2.9110  -45.0341 C   0  0  0  0  0  0  0  0  0  0  0  0
  -34.0416    3.7695  -44.2057 C   0  0  0  0  0  0  0  0  0  0  0  0
  -34.7577    4.2629  -42.9469 C   0  0  0  0  0  0  0  0  0  0  0  0
  -36.1931    3.7334  -42.9361 C   0  0  0  0  0  0  0  0  0  0  0  0
  -36.9331    4.2402  -44.1756 C   0  0  0  0  0  0  0  0  0  0  0  0
  -36.2169    3.7468  -45.4344 C   0  0  0  0  0  0  0  0  0  0  0  0
  -35.2555   -0.0350  -41.4546 X   0  0  0  0  0  0  0  0  0  0  0  0
  1  2  2  0  0  0  0
  1  3  1  0  0  0  0
  1 11  1  0  0  0  0
  3  4  1  0  0  0  0
  3  8  1  0  0  0  0
  4  5  1  0  0  0  0
  5  6  1  0  0  0  0
  5 10  1  0  0  0  0
  6  7  1  0  0  0  0
  7  8  1  0  0  0  0
  8  9  1  0  0  0  0
  9 10  1  0  0  0  0
M  END
> <Index>
6529

> <PropertyFieldDistance>
nan

$$$$
12054156
BBcorina  12272117083D 1   1.00000     0.00000 
CORINA 4.3.0 0026  30.10.2019
 12 13  0  0  0  0  0  0  0  0999 V2000
  -37.3049    5.4755  -45.7236 C   0  0  0  0  0  0  0  0  0  0  0  0
  -37.7076    4.7583  -46.6077 O   0  0  0  0  0  0  0  0  0  0  0  0
  -36.7107    4.8732  -44.4765 C   0  0  0  0  0  0  0  0  0  0  0  0
  -36.6898    3.3349  -44.4850 C   0  0  0  0  0  0  0  0  0  0  0  0
  -35.2982    3.4314  -43.8465 C   0  0  0  0  0  0  0  0  0  0  0  0
  -35.1733    4.8175  -44.4915 C   0  0  0  0  0  0  0  0  0  0  0  0
  -35.3297    3.4691  -42.3201 C   0  0  0  0  0  0  0  0  0  0  0  0
  -35.6422    2.0678  -41.7872 C   0  0  0  0  0  0  0  0  0  0  0  0
  -34.5898    1.0825  -42.2988 C   0  0  0  0  0  0  0  0  0  0  0  0
  -34.6344    1.0277  -43.8269 C   0  0  0  0  0  0  0  0  0  0  0  0
  -34.3041    2.4105  -44.3961 C   0  0  0  0  0  0  0  0  0  0  0  0
  -37.4124    7.2341  -45.8925 X   0  0  0  0  0  0  0  0  0  0  0  0
  1  2  2  0  0  0  0
  1  3  1  0  0  0  0
  1 12  1  0  0  0  0
  3  4  1  0  0  0  0
  3  6  1  0  0  0  0
  4  5  1  0  0  0  0
  5  6  1  0  0  0  0
  5  7  1  0  0  0  0
  5 11  1  0  0  0  0
  7  8  1  0  0  0  0
  8  9  1  0  0  0  0
  9 10  1  0  0  0  0
 10 11  1  0  0  0  0
M  END
> <Index>
6573

> <PropertyFieldDistance>
nan

$$$$
15611792
BBcorina  12272117083D 1   1.00000     0.00000 
CORINA 4.3.0 0026  30.10.2019
 12 12  0  0  0  0  0  0  0  0999 V2000
  -35.4408    0.3170  -43.9620 C   0  0  0  0  0  0  0  0  0  0  0  0
  -35.4535    1.8290  -43.7284 C   0  0  0  0  0  0  0  0  0  0  0  0
  -34.0125    2.3430  -43.7394 C   0  0  0  0  0  0  0  0  0  0  0  0
  -36.0741    2.1148  -42.3475 C   0  0  0  0  0  0  0  0  0  0  0  0
  -36.5251    3.5784  -42.1858 C   0  0  0  0  0  0  0  0  0  0  0  0
  -35.5352    4.5542  -42.7619 C   0  0  0  0  0  0  0  0  0  0  0  0
  -35.9563    4.8829  -44.2089 C   0  0  0  0  0  0  0  0  0  0  0  0
  -35.5554    3.8491  -45.1516 C   0  0  0  0  0  0  0  0  0  0  0  0
  -36.2141    2.4881  -44.8470 C   0  0  0  0  0  0  0  0  0  0  0  0
  -35.3226    6.1879  -44.6170 C   0  0  0  0  0  0  0  0  0  0  0  0
  -34.6138    6.2356  -45.5936 O   0  0  0  0  0  0  0  0  0  0  0  0
  -35.6173    7.6508  -43.6651 X   0  0  0  0  0  0  0  0  0  0  0  0
  1  2  1  0  0  0  0
  2  3  1  0  0  0  0
  2  4  1  0  0  0  0
  2  9  1  0  0  0  0
  4  5  1  0  0  0  0
  5  6  1  0  0  0  0
  6  7  1  0  0  0  0
  7  8  1  0  0  0  0
  7 10  1  0  0  0  0
  8  9  1  0  0  0  0
 10 11  2  0  0  0  0
 10 12  1  0  0  0  0
M  END
> <Index>
6582

> <PropertyFieldDistance>
nan

$$$$
13901678
BBcorina  12272117083D 1   1.00000     0.00000 
CORINA 4.3.0 0026  30.10.2019
 14 15  0  0  0  0  0  0  0  0999 V2000
  -36.2487    2.2628  -44.7872 C   0  0  0  0  0  0  0  0  0  0  0  0
  -36.0834    3.6715  -44.4051 N   0  0  0  0  0  0  0  0  0  0  0  0
  -36.9320    4.0077  -43.2558 C   0  0  0  0  0  0  0  0  0  0  0  0
  -36.6245    5.4477  -42.8251 C   0  0  0  0  0  0  0  0  0  0  0  0
  -35.2598    5.4965  -42.3961 O   0  0  0  0  0  0  0  0  0  0  0  0
  -34.3487    4.8747  -43.1880 C   0  0  0  0  0  0  0  0  0  0  0  0
  -32.9847    5.1510  -42.9964 C   0  0  0  0  0  0  0  0  0  0  0  0
  -32.0271    4.5143  -43.7958 C   0  0  0  0  0  0  0  0  0  0  0  0
  -32.4271    3.6217  -44.7641 C   0  0  0  0  0  0  0  0  0  0  0  0
  -33.7716    3.3543  -44.9573 C   0  0  0  0  0  0  0  0  0  0  0  0
  -34.7374    3.9732  -44.1719 C   0  0  0  0  0  0  0  0  0  0  0  0
  -32.5647    6.1041  -41.9621 C   0  0  0  0  0  0  0  0  0  0  0  0
  -33.3958    6.6544  -41.2709 O   0  0  0  0  0  0  0  0  0  0  0  0
  -30.8454    6.4505  -41.7236 X   0  0  0  0  0  0  0  0  0  0  0  0
  1  2  1  0  0  0  0
  2  3  1  0  0  0  0
  2 11  1  0  0  0  0
  3  4  1  0  0  0  0
  4  5  1  0  0  0  0
  5  6  1  0  0  0  0
  6  7  2  0  0  0  0
  6 11  1  0  0  0  0
  7  8  1  0  0  0  0
  7 12  1  0  0  0  0
  8  9  2  0  0  0  0
  9 10  1  0  0  0  0
 10 11  2  0  0  0  0
 12 13  2  0  0  0  0
 12 14  1  0  0  0  0
M  END
> <Index>
6595

> <PropertyFieldDistance>
nan

$$$$
13578412
BBcorina  12272117083D 1   1.00000     0.00000 
CORINA 4.3.0 0026  30.10.2019
 11 11  0  0  0  0  0  0  0  0999 V2000
  -37.0591    1.7292  -45.5774 C   0  0  0  0  0  0  0  0  0  0  0  0
  -35.7444    2.2365  -45.0429 C   0  0  0  0  0  0  0  0  0  0  0  0
  -34.7362    1.5785  -45.1886 O   0  0  0  0  0  0  0  0  0  0  0  0
  -35.6893    3.4214  -44.4031 N   0  0  0  0  0  0  0  0  0  0  0  0
  -36.8829    4.2600  -44.1971 C   0  0  0  0  0  0  0  0  0  0  0  0
  -36.4267    5.2519  -42.7152 S   0  0  0  0  0  0  0  0  0  0  0  0
  -34.6392    5.3204  -43.1550 C   0  0  0  0  0  0  0  0  0  0  0  0
  -34.4494    3.9614  -43.8663 C   0  0  0  0  0  0  0  0  0  0  0  0
  -33.4688    4.1389  -44.9968 C   0  0  0  0  0  0  0  0  0  0  0  0
  -33.8022    3.8886  -46.1302 O   0  0  0  0  0  0  0  0  0  0  0  0
  -31.8308    4.7215  -44.6643 X   0  0  0  0  0  0  0  0  0  0  0  0
  1  2  1  0  0  0  0
  2  3  2  0  0  0  0
  2  4  1  0  0  0  0
  4  5  1  0  0  0  0
  4  8  1  0  0  0  0
  5  6  1  0  0  0  0
  6  7  1  0  0  0  0
  7  8  1  0  0  0  0
  8  9  1  0  0  0  0
  9 10  2  0  0  0  0
  9 11  1  0  0  0  0
M  END
> <Index>
6665

> <PropertyFieldDistance>
nan

$$$$
14248120
BBcorina  12272117083D 1   1.00000     0.00000 
CORINA 4.3.0 0026  30.10.2019
 12 12  0  0  0  0  0  0  0  0999 V2000
  -33.0643    2.8282  -42.2404 O   0  0  0  0  0  0  0  0  0  0  0  0
  -34.1715    3.7138  -42.0621 C   0  0  0  0  0  0  0  0  0  0  0  0
  -35.1866    3.4940  -43.1856 C   0  0  0  0  0  0  0  0  0  0  0  0
  -34.5720    3.8784  -44.5043 C   0  0  0  0  0  0  0  0  0  0  0  0
  -35.5999    4.4830  -45.4798 C   0  0  0  0  0  0  0  0  0  0  0  0
  -36.9463    3.7341  -45.4689 C   0  0  0  0  0  0  0  0  0  0  0  0
  -36.7738    2.2402  -45.4185 C   0  0  0  0  0  0  0  0  0  0  0  0
  -36.8375    1.7892  -43.9449 C   0  0  0  0  0  0  0  0  0  0  0  0
  -35.5801    2.0038  -43.2441 C   0  0  0  0  0  0  0  0  0  0  0  0
  -34.8261    3.4384  -40.7329 C   0  0  0  0  0  0  0  0  0  0  0  0
  -34.4599    2.5038  -40.0616 O   0  0  0  0  0  0  0  0  0  0  0  0
  -36.1316    4.4850  -40.1555 X   0  0  0  0  0  0  0  0  0  0  0  0
  1  2  1  0  0  0  0
  2  3  1  0  0  0  0
  2 10  1  0  0  0  0
  3  4  1  0  0  0  0
  3  9  1  0  0  0  0
  4  5  1  0  0  0  0
  5  6  1  0  0  0  0
  6  7  1  0  0  0  0
  7  8  1  0  0  0  0
  8  9  1  0  0  0  0
 10 11  2  0  0  0  0
 10 12  1  0  0  0  0
M  END
> <Index>
6675

> <PropertyFieldDistance>
nan

$$$$
16715676
BBcorina  12272117083D 1   1.00000     0.00000 
CORINA 4.3.0 0026  30.10.2019
 11 12  0  0  0  0  0  0  0  0999 V2000
  -33.2369    1.9614  -43.5457 C   0  0  0  0  0  0  0  0  0  0  0  0
  -33.2205    0.7539  -43.5524 O   0  0  0  0  0  0  0  0  0  0  0  0
  -34.5521    2.6971  -43.5355 C   0  0  0  0  0  0  0  0  0  0  0  0
  -34.6517    3.5839  -44.7812 C   0  0  0  0  0  0  0  0  0  0  0  0
  -36.0644    4.1835  -44.8498 C   0  0  0  0  0  0  0  0  0  0  0  0
  -36.3967    4.7839  -43.4641 C   0  0  0  0  0  0  0  0  0  0  0  0
  -37.0469    3.6111  -42.6964 C   0  0  0  0  0  0  0  0  0  0  0  0
  -37.0279    2.4452  -43.7120 C   0  0  0  0  0  0  0  0  0  0  0  0
  -35.7036    1.6861  -43.5390 C   0  0  0  0  0  0  0  0  0  0  0  0
  -36.9959    3.0898  -45.0049 O   0  0  0  0  0  0  0  0  0  0  0  0
  -31.7162    2.8672  -43.5554 X   0  0  0  0  0  0  0  0  0  0  0  0
  1  2  2  0  0  0  0
  1  3  1  0  0  0  0
  1 11  1  0  0  0  0
  3  4  1  0  0  0  0
  3  9  1  0  0  0  0
  4  5  1  0  0  0  0
  5  6  1  0  0  0  0
  5 10  1  0  0  0  0
  6  7  1  0  0  0  0
  7  8  1  0  0  0  0
  8  9  1  0  0  0  0
  8 10  1  0  0  0  0
M  END
> <Index>
6700

> <PropertyFieldDistance>
nan

$$$$
11982924
BBcorina  12272117083D 1   1.00000     0.00000 
CORINA 4.3.0 0026  30.10.2019
 12 12  0  0  0  0  0  0  0  0999 V2000
  -35.8995    1.3666  -45.4561 C   0  0  0  0  0  0  0  0  0  0  0  0
  -36.4702    2.7834  -45.5435 C   0  0  0  0  0  0  0  0  0  0  0  0
  -35.8848    3.4946  -46.7652 C   0  0  0  0  0  0  0  0  0  0  0  0
  -36.5378    4.8437  -46.9218 C   0  0  0  0  0  0  0  0  0  0  0  0
  -37.3840    5.1997  -46.1373 O   0  0  0  0  0  0  0  0  0  0  0  0
  -36.1193    3.5269  -44.3310 N   0  0  0  0  0  0  0  0  0  0  0  0
  -37.0974    4.1051  -43.4020 C   0  0  0  0  0  0  0  0  0  0  0  0
  -36.3102    5.1320  -42.5581 C   0  0  0  0  0  0  0  0  0  0  0  0
  -34.8714    4.5717  -42.6412 C   0  0  0  0  0  0  0  0  0  0  0  0
  -34.8593    3.7693  -43.9237 C   0  0  0  0  0  0  0  0  0  0  0  0
  -33.8596    3.3984  -44.5017 O   0  0  0  0  0  0  0  0  0  0  0  0
  -36.0643    5.9065  -48.2557 X   0  0  0  0  0  0  0  0  0  0  0  0
  1  2  1  0  0  0  0
  2  3  1  0  0  0  0
  2  6  1  0  0  0  0
  3  4  1  0  0  0  0
  4  5  2  0  0  0  0
  4 12  1  0  0  0  0
  6  7  1  0  0  0  0
  6 10  1  0  0  0  0
  7  8  1  0  0  0  0
  8  9  1  0  0  0  0
  9 10  1  0  0  0  0
 10 11  2  0  0  0  0
M  END
> <Index>
6703

> <PropertyFieldDistance>
nan

$$$$
12053372
BBcorina  12272117083D 1   1.00000     0.00000 
CORINA 4.3.0 0026  30.10.2019
 12 12  0  0  0  0  0  0  0  0999 V2000
  -36.4770    2.4850  -44.9538 C   0  0  0  0  0  0  0  0  0  0  0  0
  -35.9030    3.4810  -44.0456 N   0  0  0  0  0  0  0  0  0  0  0  0
  -36.6709    3.9294  -42.8726 C   0  0  0  0  0  0  0  0  0  0  0  0
  -37.1500    5.3613  -43.1191 C   0  0  0  0  0  0  0  0  0  0  0  0
  -36.0926    6.3654  -42.6977 C   0  0  0  0  0  0  0  0  0  0  0  0
  -34.8383    6.3295  -43.5519 C   0  0  0  0  0  0  0  0  0  0  0  0
  -34.0879    5.0096  -43.3580 C   0  0  0  0  0  0  0  0  0  0  0  0
  -34.2265    4.5536  -41.9284 C   0  0  0  0  0  0  0  0  0  0  0  0
  -34.3153    5.3677  -41.0409 O   0  0  0  0  0  0  0  0  0  0  0  0
  -34.6859    3.9714  -44.2840 C   0  0  0  0  0  0  0  0  0  0  0  0
  -34.0577    3.5875  -45.2477 O   0  0  0  0  0  0  0  0  0  0  0  0
  -34.2590    2.8248  -41.5501 X   0  0  0  0  0  0  0  0  0  0  0  0
  1  2  1  0  0  0  0
  2  3  1  0  0  0  0
  2 10  1  0  0  0  0
  3  4  1  0  0  0  0
  4  5  1  0  0  0  0
  5  6  1  0  0  0  0
  6  7  1  0  0  0  0
  7  8  1  0  0  0  0
  7 10  1  0  0  0  0
  8  9  2  0  0  0  0
  8 12  1  0  0  0  0
 10 11  2  0  0  0  0
M  END
> <Index>
6711

> <PropertyFieldDistance>
nan

$$$$
15260872
BBcorina  12272117083D 1   1.00000     0.00000 
CORINA 4.3.0 0026  30.10.2019
 12 12  0  0  0  0  0  0  0  0999 V2000
  -32.3517    7.1143  -42.8276 C   0  0  0  0  0  0  0  0  0  0  0  0
  -32.2904    6.7032  -43.9615 O   0  0  0  0  0  0  0  0  0  0  0  0
  -33.5930    6.8779  -42.0065 C   0  0  0  0  0  0  0  0  0  0  0  0
  -34.6147    6.1004  -42.8388 C   0  0  0  0  0  0  0  0  0  0  0  0
  -35.9117    5.9861  -42.0586 C   0  0  0  0  0  0  0  0  0  0  0  0
  -37.0544    5.3839  -42.8554 C   0  0  0  0  0  0  0  0  0  0  0  0
  -36.7788    3.9137  -43.1762 C   0  0  0  0  0  0  0  0  0  0  0  0
  -35.9918    3.8418  -44.4181 N   0  0  0  0  0  0  0  0  0  0  0  0
  -34.7101    4.2105  -44.4279 C   0  0  0  0  0  0  0  0  0  0  0  0
  -34.0694    4.1422  -45.4553 O   0  0  0  0  0  0  0  0  0  0  0  0
  -34.0522    4.7137  -43.1602 C   0  0  0  0  0  0  0  0  0  0  0  0
  -30.9834    7.9942  -42.1302 X   0  0  0  0  0  0  0  0  0  0  0  0
  1  2  2  0  0  0  0
  1  3  1  0  0  0  0
  1 12  1  0  0  0  0
  3  4  1  0  0  0  0
  4  5  1  0  0  0  0
  4 11  1  0  0  0  0
  5  6  1  0  0  0  0
  6  7  1  0  0  0  0
  7  8  1  0  0  0  0
  8  9  1  0  0  0  0
  9 10  2  0  0  0  0
  9 11  1  0  0  0  0
M  END
> <Index>
6712

> <PropertyFieldDistance>
nan

$$$$
8304760
BBcorina  12272117083D 1   1.00000     0.00000 
CORINA 4.3.0 0026  30.10.2019
 10 10  0  0  0  0  0  0  0  0999 V2000
  -33.0923    3.8599  -44.5557 C   0  0  0  0  0  0  0  0  0  0  0  0
  -34.5496    3.3942  -44.5696 C   0  0  0  0  0  0  0  0  0  0  0  0
  -35.2779    3.9586  -43.3470 C   0  0  0  0  0  0  0  0  0  0  0  0
  -36.7189    3.4393  -43.3361 C   0  0  0  0  0  0  0  0  0  0  0  0
  -36.6981    1.9077  -43.3445 C   0  0  0  0  0  0  0  0  0  0  0  0
  -35.9150    1.4225  -44.5672 C   0  0  0  0  0  0  0  0  0  0  0  0
  -34.5940    1.9663  -44.5316 O   0  0  0  0  0  0  0  0  0  0  0  0
  -37.4211    3.9272  -42.0951 C   0  0  0  0  0  0  0  0  0  0  0  0
  -37.8604    3.1332  -41.2983 O   0  0  0  0  0  0  0  0  0  0  0  0
  -37.6020    5.6639  -41.8055 X   0  0  0  0  0  0  0  0  0  0  0  0
  1  2  1  0  0  0  0
  2  3  1  0  0  0  0
  2  7  1  0  0  0  0
  3  4  1  0  0  0  0
  4  5  1  0  0  0  0
  4  8  1  0  0  0  0
  5  6  1  0  0  0  0
  6  7  1  0  0  0  0
  8  9  2  0  0  0  0
  8 10  1  0  0  0  0
M  END
> <Index>
6846

> <PropertyFieldDistance>
nan

$$$$
8845346
BBcorina  12272117083D 1   1.00000     0.00000 
CORINA 4.3.0 0026  30.10.2019
 13 13  0  0  0  0  0  0  0  0999 V2000
  -38.1497    3.2464  -44.0040 C   0  0  0  0  0  0  0  0  0  0  0  0
  -36.9929    4.2475  -44.0263 C   0  0  0  0  0  0  0  0  0  0  0  0
  -36.8253    4.8742  -42.6386 C   0  0  0  0  0  0  0  0  0  0  0  0
  -35.5836    5.7687  -42.6338 C   0  0  0  0  0  0  0  0  0  0  0  0
  -34.3434    4.9243  -42.9354 C   0  0  0  0  0  0  0  0  0  0  0  0
  -34.4828    4.2981  -44.3265 C   0  0  0  0  0  0  0  0  0  0  0  0
  -33.3145    3.3439  -44.5823 C   0  0  0  0  0  0  0  0  0  0  0  0
  -35.7483    3.5541  -44.3856 N   0  0  0  0  0  0  0  0  0  0  0  0
  -35.7673    2.2602  -44.7624 C   0  0  0  0  0  0  0  0  0  0  0  0
  -34.8417    1.5303  -44.4735 O   0  0  0  0  0  0  0  0  0  0  0  0
  -36.9254    1.7255  -45.5341 C   0  0  0  0  0  0  0  0  0  0  0  0
  -37.7890    2.4745  -45.9240 O   0  0  0  0  0  0  0  0  0  0  0  0
  -37.0348   -0.0071  -45.8793 X   0  0  0  0  0  0  0  0  0  0  0  0
  1  2  1  0  0  0  0
  2  3  1  0  0  0  0
  2  8  1  0  0  0  0
  3  4  1  0  0  0  0
  4  5  1  0  0  0  0
  5  6  1  0  0  0  0
  6  7  1  0  0  0  0
  6  8  1  0  0  0  0
  8  9  1  0  0  0  0
  9 10  2  0  0  0  0
  9 11  1  0  0  0  0
 11 12  2  0  0  0  0
 11 13  1  0  0  0  0
M  END
> <Index>
6929

> <PropertyFieldDistance>
nan

$$$$
13216090
BBcorina  12272117083D 1   1.00000     0.00000 
CORINA 4.3.0 0026  30.10.2019
 12 12  0  0  0  0  0  0  0  0999 V2000
  -36.3496    2.3570  -44.9464 C   0  0  0  0  0  0  0  0  0  0  0  0
  -36.0372    3.6631  -44.3508 N   0  0  0  0  0  0  0  0  0  0  0  0
  -36.9513    3.9683  -43.2428 C   0  0  0  0  0  0  0  0  0  0  0  0
  -36.6923    5.3914  -42.7433 C   0  0  0  0  0  0  0  0  0  0  0  0
  -35.2385    5.5066  -42.2766 C   0  0  0  0  0  0  0  0  0  0  0  0
  -34.3081    5.1369  -43.4352 C   0  0  0  0  0  0  0  0  0  0  0  0
  -34.6362    3.7211  -43.9146 C   0  0  0  0  0  0  0  0  0  0  0  0
  -34.9749    6.8485  -41.8621 O   0  0  0  0  0  0  0  0  0  0  0  0
  -33.9858    6.9563  -40.8365 C   0  0  0  0  0  0  0  0  0  0  0  0
  -33.7890    8.4070  -40.4788 C   0  0  0  0  0  0  0  0  0  0  0  0
  -34.4298    9.2604  -41.0438 O   0  0  0  0  0  0  0  0  0  0  0  0
  -32.6188    8.8598  -39.2303 X   0  0  0  0  0  0  0  0  0  0  0  0
  1  2  1  0  0  0  0
  2  3  1  0  0  0  0
  2  7  1  0  0  0  0
  3  4  1  0  0  0  0
  4  5  1  0  0  0  0
  5  6  1  0  0  0  0
  5  8  1  0  0  0  0
  6  7  1  0  0  0  0
  8  9  1  0  0  0  0
  9 10  1  0  0  0  0
 10 11  2  0  0  0  0
 10 12  1  0  0  0  0
M  END
> <Index>
6955

> <PropertyFieldDistance>
nan

$$$$
7534134
BBcorina  12272117083D 1   1.00000     0.00000 
CORINA 4.3.0 0026  30.10.2019
 12 13  0  0  0  0  0  0  0  0999 V2000
  -36.8574    4.6256  -42.4470 C   0  0  0  0  0  0  0  0  0  0  0  0
  -36.2690    5.3244  -41.6572 O   0  0  0  0  0  0  0  0  0  0  0  0
  -36.1569    4.1368  -43.6885 C   0  0  0  0  0  0  0  0  0  0  0  0
  -34.7156    4.6496  -43.6995 C   0  0  0  0  0  0  0  0  0  0  0  0
  -33.9454    3.9713  -44.8363 C   0  0  0  0  0  0  0  0  0  0  0  0
  -33.7268    2.4979  -44.4793 C   0  0  0  0  0  0  0  0  0  0  0  0
  -35.0504    1.9009  -44.0503 C   0  0  0  0  0  0  0  0  0  0  0  0
  -35.3994    0.1812  -43.9390 S   0  0  0  0  0  0  0  0  0  0  0  0
  -37.0403    0.5148  -43.4058 C   0  0  0  0  0  0  0  0  0  0  0  0
  -37.2297    1.8289  -43.3426 C   0  0  0  0  0  0  0  0  0  0  0  0
  -36.1362    2.6142  -43.6969 C   0  0  0  0  0  0  0  0  0  0  0  0
  -38.5426    4.1756  -42.1465 X   0  0  0  0  0  0  0  0  0  0  0  0
  1  2  2  0  0  0  0
  1  3  1  0  0  0  0
  1 12  1  0  0  0  0
  3  4  1  0  0  0  0
  3 11  1  0  0  0  0
  4  5  1  0  0  0  0
  5  6  1  0  0  0  0
  6  7  1  0  0  0  0
  7  8  1  0  0  0  0
  7 11  2  0  0  0  0
  8  9  1  0  0  0  0
  9 10  2  0  0  0  0
 10 11  1  0  0  0  0
M  END
> <Index>
7289

> <PropertyFieldDistance>
nan

$$$$
9395708
BBcorina  12272117083D 1   1.00000     0.00000 
CORINA 4.3.0 0026  30.10.2019
 11 11  0  0  0  0  0  0  0  0999 V2000
  -34.4145    5.8128  -41.7765 C   0  0  0  0  0  0  0  0  0  0  0  0
  -35.2512    4.6304  -42.2691 C   0  0  0  0  0  0  0  0  0  0  0  0
  -36.6446    5.1015  -42.7628 C   0  0  0  0  0  0  0  0  0  0  0  0
  -37.0324    4.0200  -43.7933 C   0  0  0  0  0  0  0  0  0  0  0  0
  -35.7881    3.3758  -44.2389 N   0  0  0  0  0  0  0  0  0  0  0  0
  -34.6508    4.0262  -43.5630 C   0  0  0  0  0  0  0  0  0  0  0  0
  -35.7013    2.3625  -45.1232 C   0  0  0  0  0  0  0  0  0  0  0  0
  -34.6157    1.9100  -45.4230 O   0  0  0  0  0  0  0  0  0  0  0  0
  -36.9388    1.7973  -45.7332 C   0  0  0  0  0  0  0  0  0  0  0  0
  -38.0191    2.2476  -45.4348 O   0  0  0  0  0  0  0  0  0  0  0  0
  -36.8242    0.4714  -46.9001 X   0  0  0  0  0  0  0  0  0  0  0  0
  1  2  1  0  0  0  0
  2  3  1  0  0  0  0
  2  6  1  0  0  0  0
  3  4  1  0  0  0  0
  4  5  1  0  0  0  0
  5  6  1  0  0  0  0
  5  7  1  0  0  0  0
  7  8  2  0  0  0  0
  7  9  1  0  0  0  0
  9 10  2  0  0  0  0
  9 11  1  0  0  0  0
M  END
> <Index>
7364

> <PropertyFieldDistance>
nan

$$$$
16317522
BBcorina  12272117083D 1   1.00000     0.00000 
CORINA 4.3.0 0026  30.10.2019
 13 13  0  0  0  0  0  0  0  0999 V2000
  -35.4645    6.1599  -41.1073 C   0  0  0  0  0  0  0  0  0  0  0  0
  -34.4642    5.9191  -40.4749 O   0  0  0  0  0  0  0  0  0  0  0  0
  -35.6044    5.6511  -42.5188 C   0  0  0  0  0  0  0  0  0  0  0  0
  -36.8277    4.7363  -42.6122 C   0  0  0  0  0  0  0  0  0  0  0  0
  -36.9866    4.2484  -44.0555 C   0  0  0  0  0  0  0  0  0  0  0  0
  -35.7293    3.6200  -44.4833 N   0  0  0  0  0  0  0  0  0  0  0  0
  -34.4782    4.3780  -44.3460 C   0  0  0  0  0  0  0  0  0  0  0  0
  -34.3481    4.8666  -42.9046 C   0  0  0  0  0  0  0  0  0  0  0  0
  -35.7230    2.3699  -44.9871 C   0  0  0  0  0  0  0  0  0  0  0  0
  -34.6677    1.8251  -45.2487 O   0  0  0  0  0  0  0  0  0  0  0  0
  -36.9926    1.6645  -45.2203 C   0  0  0  0  0  0  0  0  0  0  0  0
  -36.9923    0.4717  -45.8085 C   0  0  0  0  0  0  0  0  0  0  0  0
  -36.7662    7.1107  -40.3761 X   0  0  0  0  0  0  0  0  0  0  0  0
  1  2  2  0  0  0  0
  1  3  1  0  0  0  0
  1 13  1  0  0  0  0
  3  4  1  0  0  0  0
  3  8  1  0  0  0  0
  4  5  1  0  0  0  0
  5  6  1  0  0  0  0
  6  7  1  0  0  0  0
  6  9  1  0  0  0  0
  7  8  1  0  0  0  0
  9 10  2  0  0  0  0
  9 11  1  0  0  0  0
 11 12  2  0  0  0  0
M  END
> <Index>
7526

> <PropertyFieldDistance>
nan

$$$$
16359610
BBcorina  12272117083D 1   1.00000     0.00000 
CORINA 4.3.0 0026  30.10.2019
 13 13  0  0  0  0  0  0  0  0999 V2000
  -33.1429    5.7745  -42.7992 C   0  0  0  0  0  0  0  0  0  0  0  0
  -33.1754    6.3577  -41.7423 O   0  0  0  0  0  0  0  0  0  0  0  0
  -34.4229    5.2996  -43.4374 C   0  0  0  0  0  0  0  0  0  0  0  0
  -35.6080    5.6714  -42.5433 C   0  0  0  0  0  0  0  0  0  0  0  0
  -36.9110    5.2188  -43.2062 C   0  0  0  0  0  0  0  0  0  0  0  0
  -36.8913    3.6962  -43.3748 C   0  0  0  0  0  0  0  0  0  0  0  0
  -35.6770    3.3175  -44.1102 N   0  0  0  0  0  0  0  0  0  0  0  0
  -34.3751    3.7781  -43.6087 C   0  0  0  0  0  0  0  0  0  0  0  0
  -35.7559    2.5616  -45.2231 C   0  0  0  0  0  0  0  0  0  0  0  0
  -34.7552    2.3338  -45.8757 O   0  0  0  0  0  0  0  0  0  0  0  0
  -37.0523    2.0120  -45.6487 C   0  0  0  0  0  0  0  0  0  0  0  0
  -37.1152    1.1860  -46.6890 C   0  0  0  0  0  0  0  0  0  0  0  0
  -31.5926    5.4835  -43.6022 X   0  0  0  0  0  0  0  0  0  0  0  0
  1  2  2  0  0  0  0
  1  3  1  0  0  0  0
  1 13  1  0  0  0  0
  3  4  1  0  0  0  0
  3  8  1  0  0  0  0
  4  5  1  0  0  0  0
  5  6  1  0  0  0  0
  6  7  1  0  0  0  0
  7  8  1  0  0  0  0
  7  9  1  0  0  0  0
  9 10  2  0  0  0  0
  9 11  1  0  0  0  0
 11 12  2  0  0  0  0
M  END
> <Index>
7529

> <PropertyFieldDistance>
nan

$$$$
16480784
BBcorina  12272117083D 1   1.00000     0.00000 
CORINA 4.3.0 0026  30.10.2019
 16 17  0  0  0  0  0  0  0  0999 V2000
  -38.9296   -0.4205  -44.3266 Cl  0  0  0  0  0  0  0  0  0  0  0  0
  -37.6153    0.5083  -44.9775 C   0  0  0  0  0  0  0  0  0  0  0  0
  -36.9224    0.0191  -45.9874 N   0  0  0  0  0  0  0  0  0  0  0  0
  -35.9111    0.6960  -46.5132 C   0  0  0  0  0  0  0  0  0  0  0  0
  -35.5834    1.9317  -45.9912 C   0  0  0  0  0  0  0  0  0  0  0  0
  -36.3335    2.4189  -44.9185 C   0  0  0  0  0  0  0  0  0  0  0  0
  -37.3368    1.6839  -44.4482 N   0  0  0  0  0  0  0  0  0  0  0  0
  -36.0398    3.6506  -44.3566 N   0  0  0  0  0  0  0  0  0  0  0  0
  -36.9543    3.9550  -43.2487 C   0  0  0  0  0  0  0  0  0  0  0  0
  -36.6963    5.3783  -42.7488 C   0  0  0  0  0  0  0  0  0  0  0  0
  -35.2426    5.4943  -42.2820 C   0  0  0  0  0  0  0  0  0  0  0  0
  -34.3118    5.1254  -43.4403 C   0  0  0  0  0  0  0  0  0  0  0  0
  -34.6390    3.7095  -43.9202 C   0  0  0  0  0  0  0  0  0  0  0  0
  -34.9657    6.9096  -41.8445 C   0  0  0  0  0  0  0  0  0  0  0  0
  -35.8399    7.7407  -41.8999 O   0  0  0  0  0  0  0  0  0  0  0  0
  -33.3588    7.3535  -41.2495 X   0  0  0  0  0  0  0  0  0  0  0  0
  1  2  1  0  0  0  0
  2  3  2  0  0  0  0
  2  7  1  0  0  0  0
  3  4  1  0  0  0  0
  4  5  2  0  0  0  0
  5  6  1  0  0  0  0
  6  7  2  0  0  0  0
  6  8  1  0  0  0  0
  8  9  1  0  0  0  0
  8 13  1  0  0  0  0
  9 10  1  0  0  0  0
 10 11  1  0  0  0  0
 11 12  1  0  0  0  0
 11 14  1  0  0  0  0
 12 13  1  0  0  0  0
 14 15  2  0  0  0  0
 14 16  1  0  0  0  0
M  END
> <Index>
7597

> <PropertyFieldDistance>
nan

$$$$
14945244
BBcorina  12272117083D 1   1.00000     0.00000 
CORINA 4.3.0 0026  30.10.2019
 13 13  0  0  0  0  0  0  0  0999 V2000
  -37.7532    0.3491  -44.8149 C   0  0  0  0  0  0  0  0  0  0  0  0
  -37.4927    1.7386  -44.4309 N   0  0  0  0  0  0  0  0  0  0  0  0
  -36.2423    2.2357  -44.5073 C   0  0  0  0  0  0  0  0  0  0  0  0
  -35.3153    1.5068  -44.8035 O   0  0  0  0  0  0  0  0  0  0  0  0
  -36.0193    3.5408  -44.2552 N   0  0  0  0  0  0  0  0  0  0  0  0
  -37.1076    4.4090  -43.7856 C   0  0  0  0  0  0  0  0  0  0  0  0
  -36.6604    5.1075  -42.4976 C   0  0  0  0  0  0  0  0  0  0  0  0
  -35.3388    5.8369  -42.7500 C   0  0  0  0  0  0  0  0  0  0  0  0
  -34.2632    4.8238  -43.1488 C   0  0  0  0  0  0  0  0  0  0  0  0
  -34.6820    4.1209  -44.4388 C   0  0  0  0  0  0  0  0  0  0  0  0
  -34.9128    6.5531  -41.4945 C   0  0  0  0  0  0  0  0  0  0  0  0
  -33.8587    6.2807  -40.9719 O   0  0  0  0  0  0  0  0  0  0  0  0
  -35.9574    7.7937  -40.7854 X   0  0  0  0  0  0  0  0  0  0  0  0
  1  2  1  0  0  0  0
  2  3  1  0  0  0  0
  3  4  2  0  0  0  0
  3  5  1  0  0  0  0
  5  6  1  0  0  0  0
  5 10  1  0  0  0  0
  6  7  1  0  0  0  0
  7  8  1  0  0  0  0
  8  9  1  0  0  0  0
  8 11  1  0  0  0  0
  9 10  1  0  0  0  0
 11 12  2  0  0  0  0
 11 13  1  0  0  0  0
M  END
> <Index>
7650

> <PropertyFieldDistance>
nan

$$$$
9162294
BBcorina  12272117083D 1   1.00000     0.00000 
CORINA 4.3.0 0026  30.10.2019
 13 13  0  0  0  0  0  0  0  0999 V2000
  -35.9376    2.0118  -46.0906 C   0  0  0  0  0  0  0  0  0  0  0  0
  -36.3833    2.0882  -44.6290 C   0  0  0  0  0  0  0  0  0  0  0  0
  -35.6735    0.9996  -43.8217 C   0  0  0  0  0  0  0  0  0  0  0  0
  -36.2027    0.9948  -42.4106 C   0  0  0  0  0  0  0  0  0  0  0  0
  -37.0593    1.7811  -42.0845 O   0  0  0  0  0  0  0  0  0  0  0  0
  -36.0407    3.4035  -44.0821 N   0  0  0  0  0  0  0  0  0  0  0  0
  -37.1260    4.2418  -43.5883 C   0  0  0  0  0  0  0  0  0  0  0  0
  -36.5814    5.3206  -42.6484 C   0  0  0  0  0  0  0  0  0  0  0  0
  -35.4242    6.0405  -43.3516 C   0  0  0  0  0  0  0  0  0  0  0  0
  -34.2605    5.0571  -43.4983 C   0  0  0  0  0  0  0  0  0  0  0  0
  -34.7560    3.7609  -44.0723 C   0  0  0  0  0  0  0  0  0  0  0  0
  -33.9445    2.9984  -44.5530 O   0  0  0  0  0  0  0  0  0  0  0  0
  -35.5689   -0.1631  -41.2315 X   0  0  0  0  0  0  0  0  0  0  0  0
  1  2  1  0  0  0  0
  2  3  1  0  0  0  0
  2  6  1  0  0  0  0
  3  4  1  0  0  0  0
  4  5  2  0  0  0  0
  4 13  1  0  0  0  0
  6  7  1  0  0  0  0
  6 11  1  0  0  0  0
  7  8  1  0  0  0  0
  8  9  1  0  0  0  0
  9 10  1  0  0  0  0
 10 11  1  0  0  0  0
 11 12  2  0  0  0  0
M  END
> <Index>
7720

> <PropertyFieldDistance>
nan

$$$$
15770558
BBcorina  12272117083D 1   1.00000     0.00000 
CORINA 4.3.0 0026  30.10.2019
 11 11  0  0  0  0  0  0  0  0999 V2000
  -34.8545    6.0336  -41.0228 C   0  0  0  0  0  0  0  0  0  0  0  0
  -35.2264    4.9506  -42.0376 C   0  0  0  0  0  0  0  0  0  0  0  0
  -36.6807    5.1343  -42.4780 C   0  0  0  0  0  0  0  0  0  0  0  0
  -36.9694    4.2612  -43.6651 C   0  0  0  0  0  0  0  0  0  0  0  0
  -38.1280    4.0327  -43.9414 O   0  0  0  0  0  0  0  0  0  0  0  0
  -36.0199    3.7233  -44.4317 N   0  0  0  0  0  0  0  0  0  0  0  0
  -34.5907    3.8744  -44.1892 C   0  0  0  0  0  0  0  0  0  0  0  0
  -34.3266    5.0704  -43.2736 C   0  0  0  0  0  0  0  0  0  0  0  0
  -32.8809    5.0720  -42.8483 C   0  0  0  0  0  0  0  0  0  0  0  0
  -32.3157    4.0282  -42.6263 O   0  0  0  0  0  0  0  0  0  0  0  0
  -32.0093    6.6034  -42.6811 X   0  0  0  0  0  0  0  0  0  0  0  0
  1  2  1  0  0  0  0
  2  3  1  0  0  0  0
  2  8  1  0  0  0  0
  3  4  1  0  0  0  0
  4  5  2  0  0  0  0
  4  6  1  0  0  0  0
  6  7  1  0  0  0  0
  7  8  1  0  0  0  0
  8  9  1  0  0  0  0
  9 10  2  0  0  0  0
  9 11  1  0  0  0  0
M  END
> <Index>
7763

> <PropertyFieldDistance>
nan

$$$$
8861288
BBcorina  12272117083D 1   1.00000     0.00000 
CORINA 4.3.0 0026  30.10.2019
  9  9  0  0  0  0  0  0  0  0999 V2000
  -37.5738    2.0410  -43.6134 C   0  0  0  0  0  0  0  0  0  0  0  0
  -38.6327    2.6333  -43.6052 O   0  0  0  0  0  0  0  0  0  0  0  0
  -36.3173    2.7895  -43.6214 C   0  0  0  0  0  0  0  0  0  0  0  0
  -36.3606    4.1146  -43.6194 C   0  0  0  0  0  0  0  0  0  0  0  0
  -35.1204    4.9632  -43.6301 C   0  0  0  0  0  0  0  0  0  0  0  0
  -33.9801    4.1722  -43.2901 O   0  0  0  0  0  0  0  0  0  0  0  0
  -33.8825    2.9667  -44.0580 C   0  0  0  0  0  0  0  0  0  0  0  0
  -35.0188    2.0303  -43.6379 C   0  0  0  0  0  0  0  0  0  0  0  0
  -37.5498    0.2712  -43.6232 X   0  0  0  0  0  0  0  0  0  0  0  0
  1  2  2  0  0  0  0
  1  3  1  0  0  0  0
  1  9  1  0  0  0  0
  3  4  2  0  0  0  0
  3  8  1  0  0  0  0
  4  5  1  0  0  0  0
  5  6  1  0  0  0  0
  6  7  1  0  0  0  0
  7  8  1  0  0  0  0
M  END
> <Index>
7776

> <PropertyFieldDistance>
nan

$$$$
6407268
BBcorina  12272117083D 1   1.00000     0.00000 
CORINA 4.3.0 0026  30.10.2019
 16 17  0  0  0  0  0  0  0  0999 V2000
  -36.7615    3.5352  -47.1365 C   0  0  0  0  0  0  0  0  0  0  0  0
  -36.6895    2.3075  -46.2655 C   0  0  0  0  0  0  0  0  0  0  0  0
  -36.9734    1.0631  -46.7867 C   0  0  0  0  0  0  0  0  0  0  0  0
  -36.9132   -0.0173  -46.0304 N   0  0  0  0  0  0  0  0  0  0  0  0
  -36.5820    0.0422  -44.7541 C   0  0  0  0  0  0  0  0  0  0  0  0
  -36.2829    1.2487  -44.1568 C   0  0  0  0  0  0  0  0  0  0  0  0
  -36.3347    2.4143  -44.9207 C   0  0  0  0  0  0  0  0  0  0  0  0
  -36.0396    3.6515  -44.3561 N   0  0  0  0  0  0  0  0  0  0  0  0
  -36.9541    3.9561  -43.2482 C   0  0  0  0  0  0  0  0  0  0  0  0
  -36.6960    5.3793  -42.7484 C   0  0  0  0  0  0  0  0  0  0  0  0
  -35.2423    5.4953  -42.2815 C   0  0  0  0  0  0  0  0  0  0  0  0
  -34.3115    5.1262  -43.4400 C   0  0  0  0  0  0  0  0  0  0  0  0
  -34.6388    3.7104  -43.9197 C   0  0  0  0  0  0  0  0  0  0  0  0
  -34.9652    6.9105  -41.8441 C   0  0  0  0  0  0  0  0  0  0  0  0
  -35.8395    7.7417  -41.8995 O   0  0  0  0  0  0  0  0  0  0  0  0
  -33.3585    7.3544  -41.2491 X   0  0  0  0  0  0  0  0  0  0  0  0
  1  2  1  0  0  0  0
  2  3  2  0  0  0  0
  2  7  1  0  0  0  0
  3  4  1  0  0  0  0
  4  5  2  0  0  0  0
  5  6  1  0  0  0  0
  6  7  2  0  0  0  0
  7  8  1  0  0  0  0
  8  9  1  0  0  0  0
  8 13  1  0  0  0  0
  9 10  1  0  0  0  0
 10 11  1  0  0  0  0
 11 12  1  0  0  0  0
 11 14  1  0  0  0  0
 12 13  1  0  0  0  0
 14 15  2  0  0  0  0
 14 16  1  0  0  0  0
M  END
> <Index>
7782

> <PropertyFieldDistance>
nan

$$$$
9395716
BBcorina  12272117083D 1   1.00000     0.00000 
CORINA 4.3.0 0026  30.10.2019
 15 15  0  0  0  0  0  0  0  0999 V2000
  -35.6458    7.7591  -41.6077 F   0  0  0  0  0  0  0  0  0  0  0  0
  -34.8963    7.1777  -42.6360 C   0  0  0  0  0  0  0  0  0  0  0  0
  -33.5334    7.3724  -42.3871 F   0  0  0  0  0  0  0  0  0  0  0  0
  -35.2372    7.7727  -43.8554 F   0  0  0  0  0  0  0  0  0  0  0  0
  -35.1942    5.6784  -42.6991 C   0  0  0  0  0  0  0  0  0  0  0  0
  -36.6850    5.4657  -42.9714 C   0  0  0  0  0  0  0  0  0  0  0  0
  -36.9857    3.9638  -42.9999 C   0  0  0  0  0  0  0  0  0  0  0  0
  -36.0962    3.3219  -43.9774 N   0  0  0  0  0  0  0  0  0  0  0  0
  -34.6469    3.5313  -43.8579 C   0  0  0  0  0  0  0  0  0  0  0  0
  -34.3729    5.0425  -43.8231 C   0  0  0  0  0  0  0  0  0  0  0  0
  -36.5999    2.5511  -44.9617 C   0  0  0  0  0  0  0  0  0  0  0  0
  -37.7869    2.2998  -44.9883 O   0  0  0  0  0  0  0  0  0  0  0  0
  -35.6988    2.0073  -46.0176 C   0  0  0  0  0  0  0  0  0  0  0  0
  -34.5404    2.3473  -46.0569 O   0  0  0  0  0  0  0  0  0  0  0  0
  -36.3265    0.8635  -47.2136 X   0  0  0  0  0  0  0  0  0  0  0  0
  1  2  1  0  0  0  0
  2  3  1  0  0  0  0
  2  4  1  0  0  0  0
  2  5  1  0  0  0  0
  5  6  1  0  0  0  0
  5 10  1  0  0  0  0
  6  7  1  0  0  0  0
  7  8  1  0  0  0  0
  8  9  1  0  0  0  0
  8 11  1  0  0  0  0
  9 10  1  0  0  0  0
 11 12  2  0  0  0  0
 11 13  1  0  0  0  0
 13 14  2  0  0  0  0
 13 15  1  0  0  0  0
M  END
> <Index>
7858

> <PropertyFieldDistance>
nan

$$$$
15158402
BBcorina  12272117083D 1   1.00000     0.00000 
CORINA 4.3.0 0026  30.10.2019
 11 12  0  0  0  0  0  0  0  0999 V2000
  -37.6222    5.2603  -41.5366 C   0  0  0  0  0  0  0  0  0  0  0  0
  -37.2282    5.0091  -40.4231 O   0  0  0  0  0  0  0  0  0  0  0  0
  -36.6413    5.3748  -42.6749 C   0  0  0  0  0  0  0  0  0  0  0  0
  -37.0217    4.3862  -43.7822 C   0  0  0  0  0  0  0  0  0  0  0  0
  -35.8998    3.4492  -43.9842 N   0  0  0  0  0  0  0  0  0  0  0  0
  -34.6932    4.1854  -44.3991 C   0  0  0  0  0  0  0  0  0  0  0  0
  -34.3148    5.1764  -43.2936 C   0  0  0  0  0  0  0  0  0  0  0  0
  -35.2868    5.0544  -42.1934 N   0  0  0  0  0  0  0  0  0  0  0  0
  -35.2547    3.6899  -41.6393 C   0  0  0  0  0  0  0  0  0  0  0  0
  -35.6333    2.6989  -42.7448 C   0  0  0  0  0  0  0  0  0  0  0  0
  -39.3524    5.4866  -41.8333 X   0  0  0  0  0  0  0  0  0  0  0  0
  1  2  2  0  0  0  0
  1  3  1  0  0  0  0
  1 11  1  0  0  0  0
  3  4  1  0  0  0  0
  3  8  1  0  0  0  0
  4  5  1  0  0  0  0
  5  6  1  0  0  0  0
  5 10  1  0  0  0  0
  6  7  1  0  0  0  0
  7  8  1  0  0  0  0
  8  9  1  0  0  0  0
  9 10  1  0  0  0  0
M  END
> <Index>
7888

> <PropertyFieldDistance>
nan

$$$$
7101346
BBcorina  12272117083D 1   1.00000     0.00000 
CORINA 4.3.0 0026  30.10.2019
 12 12  0  0  0  0  0  0  0  0999 V2000
  -36.8632    1.2405  -47.0792 C   0  0  0  0  0  0  0  0  0  0  0  0
  -36.8490    1.6583  -45.6074 C   0  0  0  0  0  0  0  0  0  0  0  0
  -36.5631    0.4360  -44.7329 C   0  0  0  0  0  0  0  0  0  0  0  0
  -35.7596    2.7098  -45.3863 C   0  0  0  0  0  0  0  0  0  0  0  0
  -35.8243    3.1982  -44.0023 N   0  0  0  0  0  0  0  0  0  0  0  0
  -37.0460    4.0005  -43.7802 C   0  0  0  0  0  0  0  0  0  0  0  0
  -36.6262    5.0856  -42.7574 C   0  0  0  0  0  0  0  0  0  0  0  0
  -35.1786    5.4043  -43.2151 C   0  0  0  0  0  0  0  0  0  0  0  0
  -34.6508    4.0309  -43.6806 C   0  0  0  0  0  0  0  0  0  0  0  0
  -34.3589    5.9278  -42.0639 C   0  0  0  0  0  0  0  0  0  0  0  0
  -33.4331    5.2798  -41.6380 O   0  0  0  0  0  0  0  0  0  0  0  0
  -34.7531    7.4923  -41.3361 X   0  0  0  0  0  0  0  0  0  0  0  0
  1  2  1  0  0  0  0
  2  3  1  0  0  0  0
  2  4  1  0  0  0  0
  4  5  1  0  0  0  0
  5  6  1  0  0  0  0
  5  9  1  0  0  0  0
  6  7  1  0  0  0  0
  7  8  1  0  0  0  0
  8  9  1  0  0  0  0
  8 10  1  0  0  0  0
 10 11  2  0  0  0  0
 10 12  1  0  0  0  0
M  END
> <Index>
7950

> <PropertyFieldDistance>
nan

$$$$
7639488
BBcorina  12272117083D 1   1.00000     0.00000 
CORINA 4.3.0 0026  30.10.2019
 12 13  0  0  0  0  0  0  0  0999 V2000
  -35.0721    6.8906  -41.7900 C   0  0  0  0  0  0  0  0  0  0  0  0
  -35.6993    6.8499  -40.7588 O   0  0  0  0  0  0  0  0  0  0  0  0
  -35.4212    5.9583  -42.9214 C   0  0  0  0  0  0  0  0  0  0  0  0
  -36.6016    5.0743  -42.5096 C   0  0  0  0  0  0  0  0  0  0  0  0
  -37.1183    4.3008  -43.7275 C   0  0  0  0  0  0  0  0  0  0  0  0
  -35.9852    3.6415  -44.3810 N   0  0  0  0  0  0  0  0  0  0  0  0
  -36.0039    2.6303  -45.2662 C   0  0  0  0  0  0  0  0  0  0  0  0
  -34.7712    2.3419  -45.5946 N   0  0  0  0  0  0  0  0  0  0  0  0
  -33.9322    3.1579  -44.9332 C   0  0  0  0  0  0  0  0  0  0  0  0
  -34.6709    3.9754  -44.1730 C   0  0  0  0  0  0  0  0  0  0  0  0
  -34.2113    5.0716  -43.2466 C   0  0  0  0  0  0  0  0  0  0  0  0
  -33.7380    8.0399  -41.9698 X   0  0  0  0  0  0  0  0  0  0  0  0
  1  2  2  0  0  0  0
  1  3  1  0  0  0  0
  1 12  1  0  0  0  0
  3  4  1  0  0  0  0
  3 11  1  0  0  0  0
  4  5  1  0  0  0  0
  5  6  1  0  0  0  0
  6  7  1  0  0  0  0
  6 10  1  0  0  0  0
  7  8  2  0  0  0  0
  8  9  1  0  0  0  0
  9 10  2  0  0  0  0
 10 11  1  0  0  0  0
M  END
> <Index>
7984

> <PropertyFieldDistance>
nan

$$$$
13902714
BBcorina  12272117083D 1   1.00000     0.00000 
CORINA 4.3.0 0026  30.10.2019
 15 17  0  0  0  0  0  0  0  0999 V2000
  -35.6300    7.9867  -43.7112 C   0  0  0  0  0  0  0  0  0  0  0  0
  -36.6889    8.5790  -43.7030 O   0  0  0  0  0  0  0  0  0  0  0  0
  -35.6106    6.5548  -43.7191 C   0  0  0  0  0  0  0  0  0  0  0  0
  -35.5947    5.3810  -43.7255 C   0  0  0  0  0  0  0  0  0  0  0  0
  -35.5747    3.9091  -43.7336 C   0  0  0  0  0  0  0  0  0  0  0  0
  -37.0101    3.3795  -43.7228 C   0  0  0  0  0  0  0  0  0  0  0  0
  -36.9894    1.8497  -43.7312 C   0  0  0  0  0  0  0  0  0  0  0  0
  -36.2732    1.3563  -44.9900 C   0  0  0  0  0  0  0  0  0  0  0  0
  -34.8379    1.8859  -45.0009 C   0  0  0  0  0  0  0  0  0  0  0  0
  -34.0979    1.3790  -43.7613 C   0  0  0  0  0  0  0  0  0  0  0  0
  -34.8140    1.8724  -42.5025 C   0  0  0  0  0  0  0  0  0  0  0  0
  -36.2494    1.3429  -42.4917 C   0  0  0  0  0  0  0  0  0  0  0  0
  -34.8347    3.4023  -42.4941 C   0  0  0  0  0  0  0  0  0  0  0  0
  -34.8586    3.4157  -44.9924 C   0  0  0  0  0  0  0  0  0  0  0  0
  -34.1094    8.8925  -43.7209 X   0  0  0  0  0  0  0  0  0  0  0  0
  1  2  2  0  0  0  0
  1  3  1  0  0  0  0
  1 15  1  0  0  0  0
  3  4  3  0  0  0  0
  4  5  1  0  0  0  0
  5  6  1  0  0  0  0
  5 13  1  0  0  0  0
  5 14  1  0  0  0  0
  6  7  1  0  0  0  0
  7  8  1  0  0  0  0
  7 12  1  0  0  0  0
  8  9  1  0  0  0  0
  9 10  1  0  0  0  0
  9 14  1  0  0  0  0
 10 11  1  0  0  0  0
 11 12  1  0  0  0  0
 11 13  1  0  0  0  0
M  END
> <Index>
8025

> <PropertyFieldDistance>
nan

$$$$
7791652
BBcorina  12272117083D 1   1.00000     0.00000 
CORINA 4.3.0 0026  30.10.2019
 14 14  0  0  0  0  0  0  0  0999 V2000
  -37.5316    1.5061  -44.1319 F   0  0  0  0  0  0  0  0  0  0  0  0
  -36.3681    1.4902  -44.9086 C   0  0  0  0  0  0  0  0  0  0  0  0
  -36.4560    0.4677  -45.8594 F   0  0  0  0  0  0  0  0  0  0  0  0
  -35.2601    1.2664  -44.0841 F   0  0  0  0  0  0  0  0  0  0  0  0
  -36.2111    2.8357  -45.6197 C   0  0  0  0  0  0  0  0  0  0  0  0
  -35.9660    3.8892  -44.6257 N   0  0  0  0  0  0  0  0  0  0  0  0
  -36.9158    3.7914  -43.5100 C   0  0  0  0  0  0  0  0  0  0  0  0
  -36.7266    4.9850  -42.5711 C   0  0  0  0  0  0  0  0  0  0  0  0
  -35.2894    4.9902  -42.0433 C   0  0  0  0  0  0  0  0  0  0  0  0
  -34.3195    5.0438  -43.2270 C   0  0  0  0  0  0  0  0  0  0  0  0
  -34.5784    3.8484  -44.1468 C   0  0  0  0  0  0  0  0  0  0  0  0
  -32.9018    4.9897  -42.7187 C   0  0  0  0  0  0  0  0  0  0  0  0
  -32.1731    4.0881  -43.0569 O   0  0  0  0  0  0  0  0  0  0  0  0
  -32.3048    6.2475  -41.6257 X   0  0  0  0  0  0  0  0  0  0  0  0
  1  2  1  0  0  0  0
  2  3  1  0  0  0  0
  2  4  1  0  0  0  0
  2  5  1  0  0  0  0
  5  6  1  0  0  0  0
  6  7  1  0  0  0  0
  6 11  1  0  0  0  0
  7  8  1  0  0  0  0
  8  9  1  0  0  0  0
  9 10  1  0  0  0  0
 10 11  1  0  0  0  0
 10 12  1  0  0  0  0
 12 13  2  0  0  0  0
 12 14  1  0  0  0  0
M  END
> <Index>
8031

> <PropertyFieldDistance>
nan

$$$$
11950132
BBcorina  12272117083D 1   1.00000     0.00000 
CORINA 4.3.0 0026  30.10.2019
 10 11  0  0  0  0  0  0  0  0999 V2000
  -33.4313    4.2762  -44.2644 C   0  0  0  0  0  0  0  0  0  0  0  0
  -32.8919    3.6559  -45.1490 O   0  0  0  0  0  0  0  0  0  0  0  0
  -34.4385    3.5964  -43.3731 C   0  0  0  0  0  0  0  0  0  0  0  0
  -34.5881    2.1368  -43.8025 C   0  0  0  0  0  0  0  0  0  0  0  0
  -35.7019    1.4936  -42.9683 C   0  0  0  0  0  0  0  0  0  0  0  0
  -37.0494    2.0049  -43.4781 C   0  0  0  0  0  0  0  0  0  0  0  0
  -37.0701    3.5319  -43.4697 C   0  0  0  0  0  0  0  0  0  0  0  0
  -36.5908    4.2198  -44.7573 C   0  0  0  0  0  0  0  0  0  0  0  0
  -35.7708    4.3220  -43.4778 C   0  0  0  0  0  0  0  0  0  0  0  0
  -33.0391    5.9841  -44.0148 X   0  0  0  0  0  0  0  0  0  0  0  0
  1  2  2  0  0  0  0
  1  3  1  0  0  0  0
  1 10  1  0  0  0  0
  3  4  1  0  0  0  0
  3  9  1  0  0  0  0
  4  5  1  0  0  0  0
  5  6  1  0  0  0  0
  6  7  1  0  0  0  0
  7  8  1  0  0  0  0
  7  9  1  0  0  0  0
  8  9  1  0  0  0  0
M  END
> <Index>
8117

> <PropertyFieldDistance>
nan

$$$$
10808086
BBcorina  12272117083D 1   1.00000     0.00000 
CORINA 4.3.0 0026  30.10.2019
 10 11  0  0  0  0  0  0  0  0999 V2000
  -34.1237    5.5197  -43.1070 C   0  0  0  0  0  0  0  0  0  0  0  0
  -35.1776    6.1092  -43.0988 O   0  0  0  0  0  0  0  0  0  0  0  0
  -34.1032    4.0128  -43.1153 C   0  0  0  0  0  0  0  0  0  0  0  0
  -35.5386    3.4833  -43.1044 C   0  0  0  0  0  0  0  0  0  0  0  0
  -36.2462    3.8074  -44.4436 C   0  0  0  0  0  0  0  0  0  0  0  0
  -37.3638    2.7370  -44.5075 C   0  0  0  0  0  0  0  0  0  0  0  0
  -36.7055    1.4676  -43.9287 C   0  0  0  0  0  0  0  0  0  0  0  0
  -35.2587    1.1607  -44.3205 C   0  0  0  0  0  0  0  0  0  0  0  0
  -35.5450    1.9423  -43.0330 C   0  0  0  0  0  0  0  0  0  0  0  0
  -32.6030    6.4254  -43.1167 X   0  0  0  0  0  0  0  0  0  0  0  0
  1  2  2  0  0  0  0
  1  3  1  0  0  0  0
  1 10  1  0  0  0  0
  3  4  1  0  0  0  0
  4  5  1  0  0  0  0
  4  9  1  0  0  0  0
  5  6  1  0  0  0  0
  6  7  1  0  0  0  0
  7  8  1  0  0  0  0
  7  9  1  0  0  0  0
  8  9  1  0  0  0  0
M  END
> <Index>
8119

> <PropertyFieldDistance>
nan

$$$$
7963228
BBcorina  12272117083D 1   1.00000     0.00000 
CORINA 4.3.0 0026  30.10.2019
 16 17  0  0  0  0  0  0  0  0999 V2000
  -36.4275    2.6268  -45.2573 C   0  0  0  0  0  0  0  0  0  0  0  0
  -35.9857    3.2991  -44.0282 N   0  0  0  0  0  0  0  0  0  0  0  0
  -37.0072    4.2390  -43.5458 C   0  0  0  0  0  0  0  0  0  0  0  0
  -36.5439    4.8580  -42.2249 C   0  0  0  0  0  0  0  0  0  0  0  0
  -35.2592    5.5410  -42.4309 N   0  0  0  0  0  0  0  0  0  0  0  0
  -34.2377    4.6010  -42.9132 C   0  0  0  0  0  0  0  0  0  0  0  0
  -34.7010    3.9821  -44.2342 C   0  0  0  0  0  0  0  0  0  0  0  0
  -34.8413    6.1770  -41.2681 C   0  0  0  0  0  0  0  0  0  0  0  0
  -33.6375    6.8832  -41.2626 C   0  0  0  0  0  0  0  0  0  0  0  0
  -33.2275    7.5139  -40.1021 C   0  0  0  0  0  0  0  0  0  0  0  0
  -34.0357    7.4265  -38.9775 C   0  0  0  0  0  0  0  0  0  0  0  0
  -35.2233    6.7004  -39.0483 C   0  0  0  0  0  0  0  0  0  0  0  0
  -35.5872    6.1060  -40.1814 N   0  0  0  0  0  0  0  0  0  0  0  0
  -36.0877    6.5950  -37.8575 C   0  0  0  0  0  0  0  0  0  0  0  0
  -35.7639    7.1387  -36.8235 O   0  0  0  0  0  0  0  0  0  0  0  0
  -37.6011    5.6809  -37.9404 X   0  0  0  0  0  0  0  0  0  0  0  0
  1  2  1  0  0  0  0
  2  3  1  0  0  0  0
  2  7  1  0  0  0  0
  3  4  1  0  0  0  0
  4  5  1  0  0  0  0
  5  6  1  0  0  0  0
  5  8  1  0  0  0  0
  6  7  1  0  0  0  0
  8  9  2  0  0  0  0
  8 13  1  0  0  0  0
  9 10  1  0  0  0  0
 10 11  2  0  0  0  0
 11 12  1  0  0  0  0
 12 13  2  0  0  0  0
 12 14  1  0  0  0  0
 14 15  2  0  0  0  0
 14 16  1  0  0  0  0
M  END
> <Index>
8155

> <PropertyFieldDistance>
nan

$$$$
8303170
BBcorina  12272117083D 1   1.00000     0.00000 
CORINA 4.3.0 0026  30.10.2019
 14 14  0  0  0  0  0  0  0  0999 V2000
  -35.0621    7.7998  -43.2450 F   0  0  0  0  0  0  0  0  0  0  0  0
  -34.8131    7.0116  -42.1163 C   0  0  0  0  0  0  0  0  0  0  0  0
  -35.5954    7.4651  -41.0490 F   0  0  0  0  0  0  0  0  0  0  0  0
  -33.4596    7.1020  -41.7739 F   0  0  0  0  0  0  0  0  0  0  0  0
  -35.1651    5.5548  -42.4240 C   0  0  0  0  0  0  0  0  0  0  0  0
  -36.6444    5.4542  -42.8064 C   0  0  0  0  0  0  0  0  0  0  0  0
  -36.9747    4.0049  -43.1704 C   0  0  0  0  0  0  0  0  0  0  0  0
  -36.1305    3.5765  -44.2929 N   0  0  0  0  0  0  0  0  0  0  0  0
  -36.5153    2.2380  -44.7601 C   0  0  0  0  0  0  0  0  0  0  0  0
  -35.8041    1.9336  -46.0534 C   0  0  0  0  0  0  0  0  0  0  0  0
  -35.0541    2.7476  -46.5361 O   0  0  0  0  0  0  0  0  0  0  0  0
  -34.7073    3.6195  -43.9337 C   0  0  0  0  0  0  0  0  0  0  0  0
  -34.3093    5.0572  -43.5922 C   0  0  0  0  0  0  0  0  0  0  0  0
  -36.0680    0.3828  -46.8648 X   0  0  0  0  0  0  0  0  0  0  0  0
  1  2  1  0  0  0  0
  2  3  1  0  0  0  0
  2  4  1  0  0  0  0
  2  5  1  0  0  0  0
  5  6  1  0  0  0  0
  5 13  1  0  0  0  0
  6  7  1  0  0  0  0
  7  8  1  0  0  0  0
  8  9  1  0  0  0  0
  8 12  1  0  0  0  0
  9 10  1  0  0  0  0
 10 11  2  0  0  0  0
 10 14  1  0  0  0  0
 12 13  1  0  0  0  0
M  END
> <Index>
8179

> <PropertyFieldDistance>
nan

$$$$
9785892
BBcorina  12272117083D 1   1.00000     0.00000 
CORINA 4.3.0 0026  30.10.2019
 16 16  0  0  0  0  0  0  0  0999 V2000
  -32.7167   -1.0209  -43.7225 C   0  0  0  0  0  0  0  0  0  0  0  0
  -33.4848   -0.2050  -45.1490 S   0  0  0  0  0  0  0  0  0  0  0  0
  -34.8049    0.7826  -44.3923 C   0  0  0  0  0  0  0  0  0  0  0  0
  -35.5606    1.5448  -45.4826 C   0  0  0  0  0  0  0  0  0  0  0  0
  -36.2745    0.5494  -46.3993 C   0  0  0  0  0  0  0  0  0  0  0  0
  -36.5757    2.4583  -44.8454 C   0  0  0  0  0  0  0  0  0  0  0  0
  -37.7299    2.1014  -44.7382 O   0  0  0  0  0  0  0  0  0  0  0  0
  -36.2011    3.6720  -44.3947 N   0  0  0  0  0  0  0  0  0  0  0  0
  -37.1518    4.5288  -43.6730 C   0  0  0  0  0  0  0  0  0  0  0  0
  -36.5279    4.9403  -42.3358 C   0  0  0  0  0  0  0  0  0  0  0  0
  -35.1657    5.5892  -42.5913 C   0  0  0  0  0  0  0  0  0  0  0  0
  -34.2361    4.5788  -43.2673 C   0  0  0  0  0  0  0  0  0  0  0  0
  -34.8324    4.1608  -44.6102 C   0  0  0  0  0  0  0  0  0  0  0  0
  -34.5638    6.0259  -41.2805 C   0  0  0  0  0  0  0  0  0  0  0  0
  -33.5020    5.5747  -40.9235 O   0  0  0  0  0  0  0  0  0  0  0  0
  -35.4131    7.2000  -40.2642 X   0  0  0  0  0  0  0  0  0  0  0  0
  1  2  1  0  0  0  0
  2  3  1  0  0  0  0
  3  4  1  0  0  0  0
  4  5  1  0  0  0  0
  4  6  1  0  0  0  0
  6  7  2  0  0  0  0
  6  8  1  0  0  0  0
  8  9  1  0  0  0  0
  8 13  1  0  0  0  0
  9 10  1  0  0  0  0
 10 11  1  0  0  0  0
 11 12  1  0  0  0  0
 11 14  1  0  0  0  0
 12 13  1  0  0  0  0
 14 15  2  0  0  0  0
 14 16  1  0  0  0  0
M  END
> <Index>
8305

> <PropertyFieldDistance>
nan

$$$$
9320282
BBcorina  12272117083D 1   1.00000     0.00000 
CORINA 4.3.0 0026  30.10.2019
 15 17  0  0  0  0  0  0  0  0999 V2000
  -35.9136    1.1584  -41.3636 F   0  0  0  0  0  0  0  0  0  0  0  0
  -36.0040    1.9678  -42.5011 C   0  0  0  0  0  0  0  0  0  0  0  0
  -37.3393    2.7147  -42.4907 C   0  0  0  0  0  0  0  0  0  0  0  0
  -37.4382    3.5999  -43.7347 C   0  0  0  0  0  0  0  0  0  0  0  0
  -37.3511    2.7283  -44.9891 C   0  0  0  0  0  0  0  0  0  0  0  0
  -36.0159    1.9814  -44.9995 C   0  0  0  0  0  0  0  0  0  0  0  0
  -35.9170    1.0962  -43.7555 C   0  0  0  0  0  0  0  0  0  0  0  0
  -34.8547    2.9777  -42.5011 C   0  0  0  0  0  0  0  0  0  0  0  0
  -34.9536    3.8629  -43.7450 C   0  0  0  0  0  0  0  0  0  0  0  0
  -33.8043    4.8729  -43.7450 C   0  0  0  0  0  0  0  0  0  0  0  0
  -32.4891    4.1372  -43.7552 C   0  0  0  0  0  0  0  0  0  0  0  0
  -32.4727    2.9297  -43.7619 O   0  0  0  0  0  0  0  0  0  0  0  0
  -36.2889    4.6099  -43.7347 C   0  0  0  0  0  0  0  0  0  0  0  0
  -34.8666    2.9913  -44.9995 C   0  0  0  0  0  0  0  0  0  0  0  0
  -30.9684    5.0430  -43.7649 X   0  0  0  0  0  0  0  0  0  0  0  0
  1  2  1  0  0  0  0
  2  3  1  0  0  0  0
  2  7  1  0  0  0  0
  2  8  1  0  0  0  0
  3  4  1  0  0  0  0
  4  5  1  0  0  0  0
  4 13  1  0  0  0  0
  5  6  1  0  0  0  0
  6  7  1  0  0  0  0
  6 14  1  0  0  0  0
  8  9  1  0  0  0  0
  9 10  1  0  0  0  0
  9 13  1  0  0  0  0
  9 14  1  0  0  0  0
 10 11  1  0  0  0  0
 11 12  2  0  0  0  0
 11 15  1  0  0  0  0
M  END
> <Index>
8334

> <PropertyFieldDistance>
nan

$$$$
15065836
BBcorina  12272117083D 1   1.00000     0.00000 
CORINA 4.3.0 0026  30.10.2019
 11 11  0  0  0  0  0  0  0  0999 V2000
  -38.7342    2.7999  -44.7645 C   0  0  0  0  0  0  0  0  0  0  0  0
  -38.3969    4.0939  -44.0211 C   0  0  0  0  0  0  0  0  0  0  0  0
  -36.9723    4.0087  -43.4695 C   0  0  0  0  0  0  0  0  0  0  0  0
  -36.6793    5.2476  -42.6202 C   0  0  0  0  0  0  0  0  0  0  0  0
  -35.2462    5.1676  -42.0870 C   0  0  0  0  0  0  0  0  0  0  0  0
  -34.2769    5.0496  -43.2665 C   0  0  0  0  0  0  0  0  0  0  0  0
  -34.6396    3.8164  -44.0970 C   0  0  0  0  0  0  0  0  0  0  0  0
  -36.0191    3.9414  -44.5845 N   0  0  0  0  0  0  0  0  0  0  0  0
  -34.5194    2.5817  -43.2414 C   0  0  0  0  0  0  0  0  0  0  0  0
  -35.4642    1.8404  -43.1148 O   0  0  0  0  0  0  0  0  0  0  0  0
  -32.9931    2.2180  -42.4221 X   0  0  0  0  0  0  0  0  0  0  0  0
  1  2  1  0  0  0  0
  2  3  1  0  0  0  0
  3  4  1  0  0  0  0
  3  8  1  0  0  0  0
  4  5  1  0  0  0  0
  5  6  1  0  0  0  0
  6  7  1  0  0  0  0
  7  8  1  0  0  0  0
  7  9  1  0  0  0  0
  9 10  2  0  0  0  0
  9 11  1  0  0  0  0
M  END
> <Index>
8362

> <PropertyFieldDistance>
nan

$$$$
13022876
BBcorina  12272117083D 1   1.00000     0.00000 
CORINA 4.3.0 0026  30.10.2019
 12 12  0  0  0  0  0  0  0  0999 V2000
  -36.6176    1.0744  -46.8203 C   0  0  0  0  0  0  0  0  0  0  0  0
  -36.3175    2.3435  -46.0201 C   0  0  0  0  0  0  0  0  0  0  0  0
  -36.1636    1.9885  -44.5398 C   0  0  0  0  0  0  0  0  0  0  0  0
  -35.8754    3.2070  -43.7715 N   0  0  0  0  0  0  0  0  0  0  0  0
  -37.0207    4.1259  -43.7932 C   0  0  0  0  0  0  0  0  0  0  0  0
  -36.7417    5.3123  -42.8675 C   0  0  0  0  0  0  0  0  0  0  0  0
  -35.4756    6.0337  -43.3380 C   0  0  0  0  0  0  0  0  0  0  0  0
  -34.3086    5.0426  -43.3526 C   0  0  0  0  0  0  0  0  0  0  0  0
  -34.6580    3.8640  -44.2642 C   0  0  0  0  0  0  0  0  0  0  0  0
  -33.0715    5.7298  -43.8707 C   0  0  0  0  0  0  0  0  0  0  0  0
  -32.5230    5.3174  -44.8644 O   0  0  0  0  0  0  0  0  0  0  0  0
  -32.4223    7.1412  -43.0226 X   0  0  0  0  0  0  0  0  0  0  0  0
  1  2  1  0  0  0  0
  2  3  1  0  0  0  0
  3  4  1  0  0  0  0
  4  5  1  0  0  0  0
  4  9  1  0  0  0  0
  5  6  1  0  0  0  0
  6  7  1  0  0  0  0
  7  8  1  0  0  0  0
  8  9  1  0  0  0  0
  8 10  1  0  0  0  0
 10 11  2  0  0  0  0
 10 12  1  0  0  0  0
M  END
> <Index>
8409

> <PropertyFieldDistance>
nan

$$$$
13217764
BBcorina  12272117083D 1   1.00000     0.00000 
CORINA 4.3.0 0026  30.10.2019
 10 10  0  0  0  0  0  0  0  0999 V2000
  -36.3141    2.3490  -45.1235 C   0  0  0  0  0  0  0  0  0  0  0  0
  -36.0438    3.3945  -44.1336 N   0  0  0  0  0  0  0  0  0  0  0  0
  -37.0792    4.0930  -43.3629 C   0  0  0  0  0  0  0  0  0  0  0  0
  -36.3926    5.3630  -42.8037 C   0  0  0  0  0  0  0  0  0  0  0  0
  -34.9102    4.9244  -42.7665 C   0  0  0  0  0  0  0  0  0  0  0  0
  -34.8155    3.8377  -43.8147 C   0  0  0  0  0  0  0  0  0  0  0  0
  -33.7815    3.4257  -44.2965 O   0  0  0  0  0  0  0  0  0  0  0  0
  -37.5666    3.2212  -42.2345 C   0  0  0  0  0  0  0  0  0  0  0  0
  -37.1189    2.1084  -42.0944 O   0  0  0  0  0  0  0  0  0  0  0  0
  -38.7950    3.8284  -41.1141 X   0  0  0  0  0  0  0  0  0  0  0  0
  1  2  1  0  0  0  0
  2  3  1  0  0  0  0
  2  6  1  0  0  0  0
  3  4  1  0  0  0  0
  3  8  1  0  0  0  0
  4  5  1  0  0  0  0
  5  6  1  0  0  0  0
  6  7  2  0  0  0  0
  8  9  2  0  0  0  0
  8 10  1  0  0  0  0
M  END
> <Index>
8423

> <PropertyFieldDistance>
nan

$$$$
9276242
BBcorina  12272117083D 1   1.00000     0.00000 
CORINA 4.3.0 0026  30.10.2019
 10 10  0  0  0  0  0  0  0  0999 V2000
  -36.3090    2.3498  -44.9635 C   0  0  0  0  0  0  0  0  0  0  0  0
  -36.1478    3.4008  -43.9558 N   0  0  0  0  0  0  0  0  0  0  0  0
  -35.1556    3.5590  -43.2830 O   0  0  0  0  0  0  0  0  0  0  0  0
  -35.2728    4.5994  -42.4427 C   0  0  0  0  0  0  0  0  0  0  0  0
  -36.5108    5.1406  -42.6410 C   0  0  0  0  0  0  0  0  0  0  0  0
  -37.0836    4.3247  -43.6586 C   0  0  0  0  0  0  0  0  0  0  0  0
  -38.1907    4.4383  -44.1575 O   0  0  0  0  0  0  0  0  0  0  0  0
  -34.2541    5.0704  -41.4845 C   0  0  0  0  0  0  0  0  0  0  0  0
  -34.4832    6.0248  -40.7798 O   0  0  0  0  0  0  0  0  0  0  0  0
  -32.6969    4.2373  -41.3673 X   0  0  0  0  0  0  0  0  0  0  0  0
  1  2  1  0  0  0  0
  2  3  1  0  0  0  0
  2  6  1  0  0  0  0
  3  4  1  0  0  0  0
  4  5  2  0  0  0  0
  4  8  1  0  0  0  0
  5  6  1  0  0  0  0
  6  7  2  0  0  0  0
  8  9  2  0  0  0  0
  8 10  1  0  0  0  0
M  END
> <Index>
8440

> <PropertyFieldDistance>
nan

$$$$
9283378
BBcorina  12272117083D 1   1.00000     0.00000 
CORINA 4.3.0 0026  30.10.2019
 12 13  0  0  0  0  0  0  0  0999 V2000
  -36.0180    2.2573  -46.4578 C   0  0  0  0  0  0  0  0  0  0  0  0
  -36.6983    1.6776  -47.2798 O   0  0  0  0  0  0  0  0  0  0  0  0
  -36.6367    3.0050  -45.4282 C   0  0  0  0  0  0  0  0  0  0  0  0
  -37.9940    3.1687  -45.2176 C   0  0  0  0  0  0  0  0  0  0  0  0
  -38.1444    3.9433  -44.1437 N   0  0  0  0  0  0  0  0  0  0  0  0
  -36.9733    4.2750  -43.6680 C   0  0  0  0  0  0  0  0  0  0  0  0
  -36.6968    5.1409  -42.4601 C   0  0  0  0  0  0  0  0  0  0  0  0
  -35.2358    4.9322  -42.0433 C   0  0  0  0  0  0  0  0  0  0  0  0
  -34.3361    5.0637  -43.2759 C   0  0  0  0  0  0  0  0  0  0  0  0
  -34.5707    3.8696  -44.2075 C   0  0  0  0  0  0  0  0  0  0  0  0
  -36.0104    3.7143  -44.4263 N   0  0  0  0  0  0  0  0  0  0  0  0
  -34.2526    2.1732  -46.5521 X   0  0  0  0  0  0  0  0  0  0  0  0
  1  2  2  0  0  0  0
  1  3  1  0  0  0  0
  1 12  1  0  0  0  0
  3  4  2  0  0  0  0
  3 11  1  0  0  0  0
  4  5  1  0  0  0  0
  5  6  2  0  0  0  0
  6  7  1  0  0  0  0
  6 11  1  0  0  0  0
  7  8  1  0  0  0  0
  8  9  1  0  0  0  0
  9 10  1  0  0  0  0
 10 11  1  0  0  0  0
M  END
> <Index>
8444

> <PropertyFieldDistance>
nan

$$$$
16765616
BBcorina  12272117083D 1   1.00000     0.00000 
CORINA 4.3.0 0026  30.10.2019
 12 13  0  0  0  0  0  0  0  0999 V2000
  -35.0670    6.8834  -41.7789 C   0  0  0  0  0  0  0  0  0  0  0  0
  -35.7005    6.8461  -40.7515 O   0  0  0  0  0  0  0  0  0  0  0  0
  -35.4207    5.9599  -42.9162 C   0  0  0  0  0  0  0  0  0  0  0  0
  -36.6010    5.0738  -42.5076 C   0  0  0  0  0  0  0  0  0  0  0  0
  -37.1133    4.3021  -43.7282 C   0  0  0  0  0  0  0  0  0  0  0  0
  -35.9779    3.6415  -44.3807 N   0  0  0  0  0  0  0  0  0  0  0  0
  -36.0084    2.6747  -45.2237 N   0  0  0  0  0  0  0  0  0  0  0  0
  -34.8107    2.3564  -45.5771 N   0  0  0  0  0  0  0  0  0  0  0  0
  -33.9421    3.1523  -44.9372 C   0  0  0  0  0  0  0  0  0  0  0  0
  -34.6805    3.9759  -44.1723 C   0  0  0  0  0  0  0  0  0  0  0  0
  -34.2146    5.0704  -43.2488 C   0  0  0  0  0  0  0  0  0  0  0  0
  -33.7277    8.0277  -41.9520 X   0  0  0  0  0  0  0  0  0  0  0  0
  1  2  2  0  0  0  0
  1  3  1  0  0  0  0
  1 12  1  0  0  0  0
  3  4  1  0  0  0  0
  3 11  1  0  0  0  0
  4  5  1  0  0  0  0
  5  6  1  0  0  0  0
  6  7  1  0  0  0  0
  6 10  1  0  0  0  0
  7  8  2  0  0  0  0
  8  9  1  0  0  0  0
  9 10  2  0  0  0  0
 10 11  1  0  0  0  0
M  END
> <Index>
8465

> <PropertyFieldDistance>
nan

$$$$
13578448
BBcorina  12272117083D 1   1.00000     0.00000 
CORINA 4.3.0 0026  30.10.2019
 10 10  0  0  0  0  0  0  0  0999 V2000
  -35.1352    5.4971  -42.9014 C   0  0  0  0  0  0  0  0  0  0  0  0
  -34.4263    5.7047  -41.9390 O   0  0  0  0  0  0  0  0  0  0  0  0
  -35.5973    4.1398  -43.1902 C   0  0  0  0  0  0  0  0  0  0  0  0
  -35.2422    3.1356  -42.4020 C   0  0  0  0  0  0  0  0  0  0  0  0
  -35.7277    1.7323  -42.7087 C   0  0  0  0  0  0  0  0  0  0  0  0
  -35.0190    1.2424  -43.9754 C   0  0  0  0  0  0  0  0  0  0  0  0
  -35.6968    1.7081  -45.1295 O   0  0  0  0  0  0  0  0  0  0  0  0
  -35.6734    3.0932  -45.4281 C   0  0  0  0  0  0  0  0  0  0  0  0
  -36.4822    3.8787  -44.3910 C   0  0  0  0  0  0  0  0  0  0  0  0
  -35.6103    6.8368  -43.9561 X   0  0  0  0  0  0  0  0  0  0  0  0
  1  2  2  0  0  0  0
  1  3  1  0  0  0  0
  1 10  1  0  0  0  0
  3  4  2  0  0  0  0
  3  9  1  0  0  0  0
  4  5  1  0  0  0  0
  5  6  1  0  0  0  0
  6  7  1  0  0  0  0
  7  8  1  0  0  0  0
  8  9  1  0  0  0  0
M  END
> <Index>
8481

> <PropertyFieldDistance>
nan

$$$$
9610380
BBcorina  12272117083D 1   1.00000     0.00000 
CORINA 4.3.0 0026  30.10.2019
 14 18  0  0  0  0  0  0  0  0999 V2000
  -34.9209    5.2621  -45.5717 C   0  0  0  0  0  0  0  0  0  0  0  0
  -35.9480    5.8700  -45.7556 O   0  0  0  0  0  0  0  0  0  0  0  0
  -34.7814    4.3646  -44.3692 C   0  0  0  0  0  0  0  0  0  0  0  0
  -34.5089    2.9059  -44.8035 C   0  0  0  0  0  0  0  0  0  0  0  0
  -34.1357    2.1550  -43.4862 C   0  0  0  0  0  0  0  0  0  0  0  0
  -34.2415    3.1770  -42.3105 C   0  0  0  0  0  0  0  0  0  0  0  0
  -35.7544    3.5283  -42.2778 C   0  0  0  0  0  0  0  0  0  0  0  0
  -36.3925    2.0979  -42.3997 C   0  0  0  0  0  0  0  0  0  0  0  0
  -37.6843    2.4108  -43.2272 C   0  0  0  0  0  0  0  0  0  0  0  0
  -36.9296    3.1826  -44.4059 C   0  0  0  0  0  0  0  0  0  0  0  0
  -35.8330    2.1448  -44.7978 C   0  0  0  0  0  0  0  0  0  0  0  0
  -35.4870    1.4300  -43.4772 C   0  0  0  0  0  0  0  0  0  0  0  0
  -36.1200    4.2528  -43.6134 C   0  0  0  0  0  0  0  0  0  0  0  0
  -33.5793    5.4254  -46.7147 X   0  0  0  0  0  0  0  0  0  0  0  0
  1  2  2  0  0  0  0
  1  3  1  0  0  0  0
  1 14  1  0  0  0  0
  3  4  1  0  0  0  0
  3 13  1  0  0  0  0
  4  5  1  0  0  0  0
  4 11  1  0  0  0  0
  5  6  1  0  0  0  0
  5 12  1  0  0  0  0
  6  7  1  0  0  0  0
  7  8  1  0  0  0  0
  7 13  1  0  0  0  0
  8  9  1  0  0  0  0
  8 12  1  0  0  0  0
  9 10  1  0  0  0  0
 10 11  1  0  0  0  0
 10 13  1  0  0  0  0
 11 12  1  0  0  0  0
M  END
> <Index>
8495

> <PropertyFieldDistance>
nan

$$$$
9704028
BBcorina  12272117083D 1   1.00000     0.00000 
CORINA 4.3.0 0026  30.10.2019
 13 13  0  0  0  0  0  0  0  0999 V2000
  -36.9853    3.4255  -46.3186 F   0  0  0  0  0  0  0  0  0  0  0  0
  -36.1789    2.3180  -46.0353 C   0  0  0  0  0  0  0  0  0  0  0  0
  -34.8560    2.6010  -46.3921 F   0  0  0  0  0  0  0  0  0  0  0  0
  -36.2480    2.0061  -44.5390 C   0  0  0  0  0  0  0  0  0  0  0  0
  -35.9136    3.2130  -43.7713 N   0  0  0  0  0  0  0  0  0  0  0  0
  -37.0395    4.1556  -43.7558 C   0  0  0  0  0  0  0  0  0  0  0  0
  -36.7109    5.3298  -42.8309 C   0  0  0  0  0  0  0  0  0  0  0  0
  -35.4433    6.0280  -43.3313 C   0  0  0  0  0  0  0  0  0  0  0  0
  -34.2980    5.0131  -43.3839 C   0  0  0  0  0  0  0  0  0  0  0  0
  -34.6966    3.8481  -44.2927 C   0  0  0  0  0  0  0  0  0  0  0  0
  -35.0815    7.1492  -42.3916 C   0  0  0  0  0  0  0  0  0  0  0  0
  -34.0150    7.1421  -41.8253 O   0  0  0  0  0  0  0  0  0  0  0  0
  -36.2199    8.4766  -42.1179 X   0  0  0  0  0  0  0  0  0  0  0  0
  1  2  1  0  0  0  0
  2  3  1  0  0  0  0
  2  4  1  0  0  0  0
  4  5  1  0  0  0  0
  5  6  1  0  0  0  0
  5 10  1  0  0  0  0
  6  7  1  0  0  0  0
  7  8  1  0  0  0  0
  8  9  1  0  0  0  0
  8 11  1  0  0  0  0
  9 10  1  0  0  0  0
 11 12  2  0  0  0  0
 11 13  1  0  0  0  0
M  END
> <Index>
8516

> <PropertyFieldDistance>
nan

$$$$
9869562
BBcorina  12272117083D 1   1.00000     0.00000 
CORINA 4.3.0 0026  30.10.2019
 13 14  0  0  0  0  0  0  0  0999 V2000
  -36.1357    2.4442  -44.8240 C   0  0  0  0  0  0  0  0  0  0  0  0
  -36.0902    3.5900  -43.9124 N   0  0  0  0  0  0  0  0  0  0  0  0
  -35.0368    4.0528  -43.3339 N   0  0  0  0  0  0  0  0  0  0  0  0
  -35.3080    5.0671  -42.5896 N   0  0  0  0  0  0  0  0  0  0  0  0
  -36.6248    5.3228  -42.6553 C   0  0  0  0  0  0  0  0  0  0  0  0
  -37.4886    6.2773  -42.0777 C   0  0  0  0  0  0  0  0  0  0  0  0
  -38.8452    6.2092  -42.4066 C   0  0  0  0  0  0  0  0  0  0  0  0
  -39.2847    5.2222  -43.2742 C   0  0  0  0  0  0  0  0  0  0  0  0
  -38.4565    4.3440  -43.7981 N   0  0  0  0  0  0  0  0  0  0  0  0
  -37.1627    4.3546  -43.5274 C   0  0  0  0  0  0  0  0  0  0  0  0
  -36.9776    7.3129  -41.1652 C   0  0  0  0  0  0  0  0  0  0  0  0
  -35.7965    7.3527  -40.8940 O   0  0  0  0  0  0  0  0  0  0  0  0
  -38.0873    8.5000  -40.4635 X   0  0  0  0  0  0  0  0  0  0  0  0
  1  2  1  0  0  0  0
  2  3  1  0  0  0  0
  2 10  1  0  0  0  0
  3  4  2  0  0  0  0
  4  5  1  0  0  0  0
  5  6  2  0  0  0  0
  5 10  1  0  0  0  0
  6  7  1  0  0  0  0
  6 11  1  0  0  0  0
  7  8  2  0  0  0  0
  8  9  1  0  0  0  0
  9 10  2  0  0  0  0
 11 12  2  0  0  0  0
 11 13  1  0  0  0  0
M  END
> <Index>
8527

> <PropertyFieldDistance>
nan

$$$$
9982738
BBcorina  12272117083D 1   1.00000     0.00000 
CORINA 4.3.0 0026  30.10.2019
 13 13  0  0  0  0  0  0  0  0999 V2000
  -36.9741    3.4270  -46.3242 F   0  0  0  0  0  0  0  0  0  0  0  0
  -36.1734    2.3168  -46.0355 C   0  0  0  0  0  0  0  0  0  0  0  0
  -34.8478    2.5940  -46.3860 F   0  0  0  0  0  0  0  0  0  0  0  0
  -36.2513    2.0070  -44.5392 C   0  0  0  0  0  0  0  0  0  0  0  0
  -35.9151    3.2134  -43.7714 N   0  0  0  0  0  0  0  0  0  0  0  0
  -37.0403    4.1569  -43.7544 C   0  0  0  0  0  0  0  0  0  0  0  0
  -36.7096    5.3303  -42.8294 C   0  0  0  0  0  0  0  0  0  0  0  0
  -35.4419    6.0276  -43.3307 C   0  0  0  0  0  0  0  0  0  0  0  0
  -34.2975    5.0118  -43.3850 C   0  0  0  0  0  0  0  0  0  0  0  0
  -34.6982    3.8476  -44.2940 C   0  0  0  0  0  0  0  0  0  0  0  0
  -33.0609    5.6759  -43.9335 C   0  0  0  0  0  0  0  0  0  0  0  0
  -32.5498    5.2589  -44.9450 O   0  0  0  0  0  0  0  0  0  0  0  0
  -32.3576    7.0669  -43.0949 X   0  0  0  0  0  0  0  0  0  0  0  0
  1  2  1  0  0  0  0
  2  3  1  0  0  0  0
  2  4  1  0  0  0  0
  4  5  1  0  0  0  0
  5  6  1  0  0  0  0
  5 10  1  0  0  0  0
  6  7  1  0  0  0  0
  7  8  1  0  0  0  0
  8  9  1  0  0  0  0
  9 10  1  0  0  0  0
  9 11  1  0  0  0  0
 11 12  2  0  0  0  0
 11 13  1  0  0  0  0
M  END
> <Index>
8553

> <PropertyFieldDistance>
nan

$$$$
11400084
BBcorina  12272117083D 1   1.00000     0.00000 
CORINA 4.3.0 0026  30.10.2019
 10 10  0  0  0  0  0  0  0  0999 V2000
  -36.1359    5.3933  -45.5396 F   0  0  0  0  0  0  0  0  0  0  0  0
  -36.0454    4.5839  -44.4021 C   0  0  0  0  0  0  0  0  0  0  0  0
  -37.1948    3.5740  -44.4021 C   0  0  0  0  0  0  0  0  0  0  0  0
  -37.0959    2.6888  -43.1582 C   0  0  0  0  0  0  0  0  0  0  0  0
  -35.7606    1.9418  -43.1685 C   0  0  0  0  0  0  0  0  0  0  0  0
  -34.6113    2.9518  -43.1685 C   0  0  0  0  0  0  0  0  0  0  0  0
  -34.7102    3.8370  -44.4125 C   0  0  0  0  0  0  0  0  0  0  0  0
  -33.2961    2.2161  -43.1787 C   0  0  0  0  0  0  0  0  0  0  0  0
  -33.2797    1.0086  -43.1854 O   0  0  0  0  0  0  0  0  0  0  0  0
  -31.7754    3.1219  -43.1884 X   0  0  0  0  0  0  0  0  0  0  0  0
  1  2  1  0  0  0  0
  2  3  1  0  0  0  0
  2  7  1  0  0  0  0
  3  4  1  0  0  0  0
  4  5  1  0  0  0  0
  5  6  1  0  0  0  0
  6  7  1  0  0  0  0
  6  8  1  0  0  0  0
  8  9  2  0  0  0  0
  8 10  1  0  0  0  0
M  END
> <Index>
8585

> <PropertyFieldDistance>
nan

$$$$
10264250
BBcorina  12272117083D 1   1.00000     0.00000 
CORINA 4.3.0 0026  30.10.2019
 10 10  0  0  0  0  0  0  0  0999 V2000
  -38.3647    3.7518  -42.9502 C   0  0  0  0  0  0  0  0  0  0  0  0
  -37.0926    4.3199  -43.5826 C   0  0  0  0  0  0  0  0  0  0  0  0
  -36.2734    5.1028  -42.5341 C   0  0  0  0  0  0  0  0  0  0  0  0
  -34.7988    4.7953  -42.8666 C   0  0  0  0  0  0  0  0  0  0  0  0
  -34.8510    3.8523  -44.0879 C   0  0  0  0  0  0  0  0  0  0  0  0
  -36.1931    3.2194  -44.0149 N   0  0  0  0  0  0  0  0  0  0  0  0
  -36.5983    2.6919  -45.3247 C   0  0  0  0  0  0  0  0  0  0  0  0
  -35.7475    1.4970  -45.6702 C   0  0  0  0  0  0  0  0  0  0  0  0
  -34.8919    1.1234  -44.9042 O   0  0  0  0  0  0  0  0  0  0  0  0
  -36.0024    0.6413  -47.1984 X   0  0  0  0  0  0  0  0  0  0  0  0
  1  2  1  0  0  0  0
  2  3  1  0  0  0  0
  2  6  1  0  0  0  0
  3  4  1  0  0  0  0
  4  5  1  0  0  0  0
  5  6  1  0  0  0  0
  6  7  1  0  0  0  0
  7  8  1  0  0  0  0
  8  9  2  0  0  0  0
  8 10  1  0  0  0  0
M  END
> <Index>
8598

> <PropertyFieldDistance>
nan

$$$$
10330364
BBcorina  12272117083D 1   1.00000     0.00000 
CORINA 4.3.0 0026  30.10.2019
 10 10  0  0  0  0  0  0  0  0999 V2000
  -34.0365    6.1445  -43.5318 C   0  0  0  0  0  0  0  0  0  0  0  0
  -35.1345    5.2584  -44.1234 C   0  0  0  0  0  0  0  0  0  0  0  0
  -36.4373    5.3559  -43.2815 C   0  0  0  0  0  0  0  0  0  0  0  0
  -37.1041    3.9907  -43.5840 C   0  0  0  0  0  0  0  0  0  0  0  0
  -35.9836    3.0293  -43.6609 N   0  0  0  0  0  0  0  0  0  0  0  0
  -36.2601    1.9764  -44.6473 C   0  0  0  0  0  0  0  0  0  0  0  0
  -36.2162    2.5637  -46.0345 C   0  0  0  0  0  0  0  0  0  0  0  0
  -35.9790    3.7381  -46.1858 O   0  0  0  0  0  0  0  0  0  0  0  0
  -34.7547    3.7673  -44.0062 C   0  0  0  0  0  0  0  0  0  0  0  0
  -36.5122    1.5321  -47.4420 X   0  0  0  0  0  0  0  0  0  0  0  0
  1  2  1  0  0  0  0
  2  3  1  0  0  0  0
  2  9  1  0  0  0  0
  3  4  1  0  0  0  0
  4  5  1  0  0  0  0
  5  6  1  0  0  0  0
  5  9  1  0  0  0  0
  6  7  1  0  0  0  0
  7  8  2  0  0  0  0
  7 10  1  0  0  0  0
M  END
> <Index>
8608

> <PropertyFieldDistance>
nan

$$$$
14523308
BBcorina  12272117083D 1   1.00000     0.00000 
CORINA 4.3.0 0026  30.10.2019
 13 13  0  0  0  0  0  0  0  0999 V2000
  -34.9874    5.8301  -40.8936 C   0  0  0  0  0  0  0  0  0  0  0  0
  -35.3461    5.0445  -42.1285 C   0  0  0  0  0  0  0  0  0  0  0  0
  -36.6531    4.8665  -42.4678 C   0  0  0  0  0  0  0  0  0  0  0  0
  -36.9537    4.1316  -43.6333 C   0  0  0  0  0  0  0  0  0  0  0  0
  -38.1107    3.9533  -43.9762 O   0  0  0  0  0  0  0  0  0  0  0  0
  -35.9337    3.6254  -44.3588 N   0  0  0  0  0  0  0  0  0  0  0  0
  -36.2097    2.8521  -45.5722 C   0  0  0  0  0  0  0  0  0  0  0  0
  -36.3441    1.3709  -45.2135 C   0  0  0  0  0  0  0  0  0  0  0  0
  -36.6279    0.5755  -46.4617 C   0  0  0  0  0  0  0  0  0  0  0  0
  -36.7140    1.1356  -47.5281 O   0  0  0  0  0  0  0  0  0  0  0  0
  -34.6615    3.8369  -43.9685 C   0  0  0  0  0  0  0  0  0  0  0  0
  -34.3831    4.5224  -42.8919 N   0  0  0  0  0  0  0  0  0  0  0  0
  -36.8424   -1.1787  -46.3635 X   0  0  0  0  0  0  0  0  0  0  0  0
  1  2  1  0  0  0  0
  2  3  2  0  0  0  0
  2 12  1  0  0  0  0
  3  4  1  0  0  0  0
  4  5  2  0  0  0  0
  4  6  1  0  0  0  0
  6  7  1  0  0  0  0
  6 11  1  0  0  0  0
  7  8  1  0  0  0  0
  8  9  1  0  0  0  0
  9 10  2  0  0  0  0
  9 13  1  0  0  0  0
 11 12  2  0  0  0  0
M  END
> <Index>
8610

> <PropertyFieldDistance>
nan

$$$$
11676408
BBcorina  12272117083D 1   1.00000     0.00000 
CORINA 4.3.0 0026  30.10.2019
 14 14  0  0  0  0  0  0  0  0999 V2000
  -36.3897    2.3724  -46.0128 C   0  0  0  0  0  0  0  0  0  0  0  0
  -36.1253    1.9775  -44.5585 C   0  0  0  0  0  0  0  0  0  0  0  0
  -37.3514    1.2564  -43.9948 C   0  0  0  0  0  0  0  0  0  0  0  0
  -34.9124    1.0468  -44.4951 C   0  0  0  0  0  0  0  0  0  0  0  0
  -35.1902   -0.2099  -45.3225 C   0  0  0  0  0  0  0  0  0  0  0  0
  -33.9957   -1.1265  -45.2601 C   0  0  0  0  0  0  0  0  0  0  0  0
  -33.0226   -0.8076  -44.6199 O   0  0  0  0  0  0  0  0  0  0  0  0
  -35.8586    3.1840  -43.7641 N   0  0  0  0  0  0  0  0  0  0  0  0
  -37.0049    4.1037  -43.8019 C   0  0  0  0  0  0  0  0  0  0  0  0
  -36.7089    5.3163  -42.9155 C   0  0  0  0  0  0  0  0  0  0  0  0
  -35.5000    5.9397  -43.3573 O   0  0  0  0  0  0  0  0  0  0  0  0
  -34.3629    5.0726  -43.3328 C   0  0  0  0  0  0  0  0  0  0  0  0
  -34.6352    3.8574  -44.2234 C   0  0  0  0  0  0  0  0  0  0  0  0
  -34.0188   -2.6706  -46.1251 X   0  0  0  0  0  0  0  0  0  0  0  0
  1  2  1  0  0  0  0
  2  3  1  0  0  0  0
  2  4  1  0  0  0  0
  2  8  1  0  0  0  0
  4  5  1  0  0  0  0
  5  6  1  0  0  0  0
  6  7  2  0  0  0  0
  6 14  1  0  0  0  0
  8  9  1  0  0  0  0
  8 13  1  0  0  0  0
  9 10  1  0  0  0  0
 10 11  1  0  0  0  0
 11 12  1  0  0  0  0
 12 13  1  0  0  0  0
M  END
> <Index>
8655

> <PropertyFieldDistance>
nan

$$$$
11243980
BBcorina  12272117083D 1   1.00000     0.00000 
CORINA 4.3.0 0026  30.10.2019
 12 12  0  0  0  0  0  0  0  0999 V2000
  -36.3274    1.2504  -45.0826 C   0  0  0  0  0  0  0  0  0  0  0  0
  -36.3261    2.6576  -45.3313 O   0  0  0  0  0  0  0  0  0  0  0  0
  -35.9480    3.4664  -44.1723 N   0  0  0  0  0  0  0  0  0  0  0  0
  -37.0291    4.3869  -43.7977 C   0  0  0  0  0  0  0  0  0  0  0  0
  -36.6585    5.1099  -42.5008 C   0  0  0  0  0  0  0  0  0  0  0  0
  -35.3535    5.8833  -42.7079 C   0  0  0  0  0  0  0  0  0  0  0  0
  -34.9460    6.5589  -41.3971 C   0  0  0  0  0  0  0  0  0  0  0  0
  -35.9673    7.6054  -41.0327 C   0  0  0  0  0  0  0  0  0  0  0  0
  -36.9226    7.7916  -41.7475 O   0  0  0  0  0  0  0  0  0  0  0  0
  -34.2559    4.9088  -43.1442 C   0  0  0  0  0  0  0  0  0  0  0  0
  -34.6958    4.1916  -44.4226 C   0  0  0  0  0  0  0  0  0  0  0  0
  -35.7666    8.5616  -39.5567 X   0  0  0  0  0  0  0  0  0  0  0  0
  1  2  1  0  0  0  0
  2  3  1  0  0  0  0
  3  4  1  0  0  0  0
  3 11  1  0  0  0  0
  4  5  1  0  0  0  0
  5  6  1  0  0  0  0
  6  7  1  0  0  0  0
  6 10  1  0  0  0  0
  7  8  1  0  0  0  0
  8  9  2  0  0  0  0
  8 12  1  0  0  0  0
 10 11  1  0  0  0  0
M  END
> <Index>
8688

> <PropertyFieldDistance>
nan

$$$$
12102994
BBcorina  12272117083D 1   1.00000     0.00000 
CORINA 4.3.0 0026  30.10.2019
 12 13  0  0  0  0  0  0  0  0999 V2000
  -37.2073    5.3739  -44.9274 C   0  0  0  0  0  0  0  0  0  0  0  0
  -36.6107    5.2280  -45.9672 O   0  0  0  0  0  0  0  0  0  0  0  0
  -37.0314    4.3764  -43.8114 C   0  0  0  0  0  0  0  0  0  0  0  0
  -36.6642    5.1095  -42.5121 C   0  0  0  0  0  0  0  0  0  0  0  0
  -35.3304    5.8397  -42.6636 C   0  0  0  0  0  0  0  0  0  0  0  0
  -34.2357    4.8728  -43.1402 C   0  0  0  0  0  0  0  0  0  0  0  0
  -34.7129    4.2399  -44.4415 C   0  0  0  0  0  0  0  0  0  0  0  0
  -33.7636    3.1505  -44.9719 C   0  0  0  0  0  0  0  0  0  0  0  0
  -34.7194    2.2748  -45.8275 C   0  0  0  0  0  0  0  0  0  0  0  0
  -36.1361    2.5676  -45.2722 C   0  0  0  0  0  0  0  0  0  0  0  0
  -35.9432    3.4650  -44.1325 N   0  0  0  0  0  0  0  0  0  0  0  0
  -38.2884    6.7590  -44.7140 X   0  0  0  0  0  0  0  0  0  0  0  0
  1  2  2  0  0  0  0
  1  3  1  0  0  0  0
  1 12  1  0  0  0  0
  3  4  1  0  0  0  0
  3 11  1  0  0  0  0
  4  5  1  0  0  0  0
  5  6  1  0  0  0  0
  6  7  1  0  0  0  0
  7  8  1  0  0  0  0
  7 11  1  0  0  0  0
  8  9  1  0  0  0  0
  9 10  1  0  0  0  0
 10 11  1  0  0  0  0
M  END
> <Index>
8689

> <PropertyFieldDistance>
nan

$$$$
11618790
BBcorina  12272117083D 1   1.00000     0.00000 
CORINA 4.3.0 0026  30.10.2019
 11 11  0  0  0  0  0  0  0  0999 V2000
  -35.3230    1.8674  -45.6318 C   0  0  0  0  0  0  0  0  0  0  0  0
  -36.3545    2.8471  -45.4956 O   0  0  0  0  0  0  0  0  0  0  0  0
  -36.0191    3.9414  -44.5845 N   0  0  0  0  0  0  0  0  0  0  0  0
  -36.9723    4.0086  -43.4694 C   0  0  0  0  0  0  0  0  0  0  0  0
  -36.6793    5.2476  -42.6203 C   0  0  0  0  0  0  0  0  0  0  0  0
  -35.2462    5.1675  -42.0868 C   0  0  0  0  0  0  0  0  0  0  0  0
  -34.2769    5.0496  -43.2664 C   0  0  0  0  0  0  0  0  0  0  0  0
  -34.6396    3.8164  -44.0971 C   0  0  0  0  0  0  0  0  0  0  0  0
  -34.9307    6.4122  -41.2983 C   0  0  0  0  0  0  0  0  0  0  0  0
  -35.7670    7.2738  -41.1698 O   0  0  0  0  0  0  0  0  0  0  0  0
  -33.3343    6.6115  -40.5602 X   0  0  0  0  0  0  0  0  0  0  0  0
  1  2  1  0  0  0  0
  2  3  1  0  0  0  0
  3  4  1  0  0  0  0
  3  8  1  0  0  0  0
  4  5  1  0  0  0  0
  5  6  1  0  0  0  0
  6  7  1  0  0  0  0
  6  9  1  0  0  0  0
  7  8  1  0  0  0  0
  9 10  2  0  0  0  0
  9 11  1  0  0  0  0
M  END
> <Index>
8693

> <PropertyFieldDistance>
nan

$$$$
12060046
BBcorina  12272117083D 1   1.00000     0.00000 
CORINA 4.3.0 0026  30.10.2019
 12 13  0  0  0  0  0  0  0  0999 V2000
  -37.8969    1.3344  -41.8579 F   0  0  0  0  0  0  0  0  0  0  0  0
  -36.8075    1.8772  -42.5476 C   0  0  0  0  0  0  0  0  0  0  0  0
  -35.7676    0.9860  -42.8331 F   0  0  0  0  0  0  0  0  0  0  0  0
  -36.4335    3.3228  -42.2475 C   0  0  0  0  0  0  0  0  0  0  0  0
  -34.9659    3.7339  -42.2093 C   0  0  0  0  0  0  0  0  0  0  0  0
  -34.2431    3.2373  -43.4615 C   0  0  0  0  0  0  0  0  0  0  0  0
  -34.9917    3.7487  -44.6977 C   0  0  0  0  0  0  0  0  0  0  0  0
  -36.2759    2.9353  -44.8606 C   0  0  0  0  0  0  0  0  0  0  0  0
  -37.0963    2.9840  -43.5736 C   0  0  0  0  0  0  0  0  0  0  0  0
  -34.1246    3.5824  -45.9190 C   0  0  0  0  0  0  0  0  0  0  0  0
  -33.0206    3.1043  -45.8151 O   0  0  0  0  0  0  0  0  0  0  0  0
  -34.7245    4.0879  -47.5057 X   0  0  0  0  0  0  0  0  0  0  0  0
  1  2  1  0  0  0  0
  2  3  1  0  0  0  0
  2  4  1  0  0  0  0
  2  9  1  0  0  0  0
  4  5  1  0  0  0  0
  4  9  1  0  0  0  0
  5  6  1  0  0  0  0
  6  7  1  0  0  0  0
  7  8  1  0  0  0  0
  7 10  1  0  0  0  0
  8  9  1  0  0  0  0
 10 11  2  0  0  0  0
 10 12  1  0  0  0  0
M  END
> <Index>
8708

> <PropertyFieldDistance>
nan

$$$$
11565866
BBcorina  12272117083D 1   1.00000     0.00000 
CORINA 4.3.0 0026  30.10.2019
 13 14  0  0  0  0  0  0  0  0999 V2000
  -35.0582    6.8967  -41.7598 C   0  0  0  0  0  0  0  0  0  0  0  0
  -35.4207    5.9607  -42.9146 C   0  0  0  0  0  0  0  0  0  0  0  0
  -36.6024    5.0753  -42.5067 C   0  0  0  0  0  0  0  0  0  0  0  0
  -37.1102    4.3014  -43.7276 C   0  0  0  0  0  0  0  0  0  0  0  0
  -35.9722    3.6437  -44.3790 N   0  0  0  0  0  0  0  0  0  0  0  0
  -36.0176    2.5921  -45.2964 N   0  0  0  0  0  0  0  0  0  0  0  0
  -34.7994    2.2820  -45.6479 C   0  0  0  0  0  0  0  0  0  0  0  0
  -33.9107    3.1413  -44.9546 C   0  0  0  0  0  0  0  0  0  0  0  0
  -32.4471    3.1441  -45.0487 C   0  0  0  0  0  0  0  0  0  0  0  0
  -31.7989    3.9370  -44.3984 O   0  0  0  0  0  0  0  0  0  0  0  0
  -34.6848    3.9743  -44.1752 C   0  0  0  0  0  0  0  0  0  0  0  0
  -34.2177    5.0689  -43.2493 C   0  0  0  0  0  0  0  0  0  0  0  0
  -31.6264    1.9908  -46.1113 X   0  0  0  0  0  0  0  0  0  0  0  0
  1  2  1  0  0  0  0
  2  3  1  0  0  0  0
  2 12  1  0  0  0  0
  3  4  1  0  0  0  0
  4  5  1  0  0  0  0
  5  6  1  0  0  0  0
  5 11  1  0  0  0  0
  6  7  2  0  0  0  0
  7  8  1  0  0  0  0
  8  9  1  0  0  0  0
  8 11  2  0  0  0  0
  9 10  2  0  0  0  0
  9 13  1  0  0  0  0
 11 12  1  0  0  0  0
M  END
> <Index>
8776

> <PropertyFieldDistance>
nan

$$$$
16712304
BBcorina  12272117083D 1   1.00000     0.00000 
CORINA 4.3.0 0026  30.10.2019
  9  9  0  0  0  0  0  0  0  0999 V2000
  -36.0938    2.4048  -44.8574 C   0  0  0  0  0  0  0  0  0  0  0  0
  -36.0845    3.5507  -43.9447 N   0  0  0  0  0  0  0  0  0  0  0  0
  -37.2566    4.3537  -43.5567 C   0  0  0  0  0  0  0  0  0  0  0  0
  -36.6586    5.4016  -42.5962 C   0  0  0  0  0  0  0  0  0  0  0  0
  -35.2279    5.0680  -42.5536 N   0  0  0  0  0  0  0  0  0  0  0  0
  -34.9895    4.0558  -43.3095 C   0  0  0  0  0  0  0  0  0  0  0  0
  -37.2726    5.2745  -41.2258 C   0  0  0  0  0  0  0  0  0  0  0  0
  -36.6946    4.6630  -40.3596 O   0  0  0  0  0  0  0  0  0  0  0  0
  -38.8407    6.0217  -40.8858 X   0  0  0  0  0  0  0  0  0  0  0  0
  1  2  1  0  0  0  0
  2  3  1  0  0  0  0
  2  6  1  0  0  0  0
  3  4  1  0  0  0  0
  4  5  1  0  0  0  0
  4  7  1  0  0  0  0
  5  6  2  0  0  0  0
  7  8  2  0  0  0  0
  7  9  1  0  0  0  0
M  END
> <Index>
8792

> <PropertyFieldDistance>
nan

$$$$
16909206
BBcorina  12272117083D 1   1.00000     0.00000 
CORINA 4.3.0 0026  30.10.2019
 12 12  0  0  0  0  0  0  0  0999 V2000
  -38.4163    4.0676  -44.0785 C   0  0  0  0  0  0  0  0  0  0  0  0
  -36.9744    4.4528  -43.8697 C   0  0  0  0  0  0  0  0  0  0  0  0
  -36.6770    5.6782  -43.3812 C   0  0  0  0  0  0  0  0  0  0  0  0
  -35.3275    6.0459  -43.1775 C   0  0  0  0  0  0  0  0  0  0  0  0
  -34.3314    5.1378  -43.4959 C   0  0  0  0  0  0  0  0  0  0  0  0
  -34.6960    3.8752  -44.0078 C   0  0  0  0  0  0  0  0  0  0  0  0
  -33.8332    3.0616  -44.2943 O   0  0  0  0  0  0  0  0  0  0  0  0
  -35.9947    3.5666  -44.1803 N   0  0  0  0  0  0  0  0  0  0  0  0
  -36.3571    2.2505  -44.7121 C   0  0  0  0  0  0  0  0  0  0  0  0
  -34.9847    7.3799  -42.6383 C   0  0  0  0  0  0  0  0  0  0  0  0
  -33.8276    7.6853  -42.4724 O   0  0  0  0  0  0  0  0  0  0  0  0
  -36.2697    8.5289  -42.2364 X   0  0  0  0  0  0  0  0  0  0  0  0
  1  2  1  0  0  0  0
  2  3  2  0  0  0  0
  2  8  1  0  0  0  0
  3  4  1  0  0  0  0
  4  5  2  0  0  0  0
  4 10  1  0  0  0  0
  5  6  1  0  0  0  0
  6  7  2  0  0  0  0
  6  8  1  0  0  0  0
  8  9  1  0  0  0  0
 10 11  2  0  0  0  0
 10 12  1  0  0  0  0
M  END
> <Index>
8799

> <PropertyFieldDistance>
nan

$$$$
13142060
BBcorina  12272117083D 1   1.00000     0.00000 
CORINA 4.3.0 0026  30.10.2019
 11 11  0  0  0  0  0  0  0  0999 V2000
  -36.3042    2.2551  -44.8707 C   0  0  0  0  0  0  0  0  0  0  0  0
  -35.9951    3.5039  -44.1699 N   0  0  0  0  0  0  0  0  0  0  0  0
  -37.1042    4.2636  -43.6067 C   0  0  0  0  0  0  0  0  0  0  0  0
  -36.5994    5.2384  -42.5422 C   0  0  0  0  0  0  0  0  0  0  0  0
  -35.4356    6.0487  -43.1258 C   0  0  0  0  0  0  0  0  0  0  0  0
  -34.2551    5.1027  -43.3570 C   0  0  0  0  0  0  0  0  0  0  0  0
  -34.7167    3.8740  -44.0866 C   0  0  0  0  0  0  0  0  0  0  0  0
  -33.8822    3.1815  -44.6297 O   0  0  0  0  0  0  0  0  0  0  0  0
  -38.0932    3.3130  -42.9827 C   0  0  0  0  0  0  0  0  0  0  0  0
  -37.7439    2.2019  -42.6638 O   0  0  0  0  0  0  0  0  0  0  0  0
  -39.7665    3.8251  -42.7173 X   0  0  0  0  0  0  0  0  0  0  0  0
  1  2  1  0  0  0  0
  2  3  1  0  0  0  0
  2  7  1  0  0  0  0
  3  4  1  0  0  0  0
  3  9  1  0  0  0  0
  4  5  1  0  0  0  0
  5  6  1  0  0  0  0
  6  7  1  0  0  0  0
  7  8  2  0  0  0  0
  9 10  2  0  0  0  0
  9 11  1  0  0  0  0
M  END
> <Index>
8805

> <PropertyFieldDistance>
nan

$$$$
6822644
BBcorina  12272117083D 1   1.00000     0.00000 
CORINA 4.3.0 0026  30.10.2019
 11 11  0  0  0  0  0  0  0  0999 V2000
  -36.3728    1.3774  -45.1056 C   0  0  0  0  0  0  0  0  0  0  0  0
  -36.3179    1.1150  -43.9281 O   0  0  0  0  0  0  0  0  0  0  0  0
  -36.1540    2.7933  -45.5731 C   0  0  0  0  0  0  0  0  0  0  0  0
  -35.9015    3.6560  -44.4162 N   0  0  0  0  0  0  0  0  0  0  0  0
  -37.0392    4.3002  -43.7650 C   0  0  0  0  0  0  0  0  0  0  0  0
  -36.6493    4.7338  -42.3471 C   0  0  0  0  0  0  0  0  0  0  0  0
  -35.3097    5.4790  -42.4243 C   0  0  0  0  0  0  0  0  0  0  0  0
  -34.3078    4.5560  -42.9334 O   0  0  0  0  0  0  0  0  0  0  0  0
  -34.6391    3.8225  -44.0073 C   0  0  0  0  0  0  0  0  0  0  0  0
  -33.7505    3.2848  -44.6379 O   0  0  0  0  0  0  0  0  0  0  0  0
  -36.7028    0.0978  -46.2831 X   0  0  0  0  0  0  0  0  0  0  0  0
  1  2  2  0  0  0  0
  1  3  1  0  0  0  0
  1 11  1  0  0  0  0
  3  4  1  0  0  0  0
  4  5  1  0  0  0  0
  4  9  1  0  0  0  0
  5  6  1  0  0  0  0
  6  7  1  0  0  0  0
  7  8  1  0  0  0  0
  8  9  1  0  0  0  0
  9 10  2  0  0  0  0
M  END
> <Index>
8824

> <PropertyFieldDistance>
nan

$$$$
13309952
BBcorina  12272117083D 1   1.00000     0.00000 
CORINA 4.3.0 0026  30.10.2019
 12 12  0  0  0  0  0  0  0  0999 V2000
  -35.6042    1.5697  -45.6034 C   0  0  0  0  0  0  0  0  0  0  0  0
  -36.5588    2.4030  -44.7875 C   0  0  0  0  0  0  0  0  0  0  0  0
  -37.6597    1.9726  -44.5161 O   0  0  0  0  0  0  0  0  0  0  0  0
  -36.1891    3.6263  -44.3595 N   0  0  0  0  0  0  0  0  0  0  0  0
  -37.1437    4.5076  -43.6685 C   0  0  0  0  0  0  0  0  0  0  0  0
  -36.4895    5.0104  -42.3766 C   0  0  0  0  0  0  0  0  0  0  0  0
  -35.2126    5.5748  -42.6842 O   0  0  0  0  0  0  0  0  0  0  0  0
  -34.2797    4.6442  -43.2387 C   0  0  0  0  0  0  0  0  0  0  0  0
  -34.8206    4.1226  -44.5748 C   0  0  0  0  0  0  0  0  0  0  0  0
  -32.9574    5.3311  -43.4647 C   0  0  0  0  0  0  0  0  0  0  0  0
  -32.8504    6.5167  -43.2615 O   0  0  0  0  0  0  0  0  0  0  0  0
  -31.5614    4.4001  -44.0279 X   0  0  0  0  0  0  0  0  0  0  0  0
  1  2  1  0  0  0  0
  2  3  2  0  0  0  0
  2  4  1  0  0  0  0
  4  5  1  0  0  0  0
  4  9  1  0  0  0  0
  5  6  1  0  0  0  0
  6  7  1  0  0  0  0
  7  8  1  0  0  0  0
  8  9  1  0  0  0  0
  8 10  1  0  0  0  0
 10 11  2  0  0  0  0
 10 12  1  0  0  0  0
M  END
> <Index>
8826

> <PropertyFieldDistance>
nan

$$$$
15260102
BBcorina  12272117083D 1   1.00000     0.00000 
CORINA 4.3.0 0026  30.10.2019
 13 14  0  0  0  0  0  0  0  0999 V2000
  -36.1363    2.4438  -44.8249 C   0  0  0  0  0  0  0  0  0  0  0  0
  -36.0894    3.5893  -43.9128 N   0  0  0  0  0  0  0  0  0  0  0  0
  -35.0357    4.0535  -43.3349 N   0  0  0  0  0  0  0  0  0  0  0  0
  -35.3086    5.0672  -42.5910 N   0  0  0  0  0  0  0  0  0  0  0  0
  -36.6264    5.3229  -42.6551 C   0  0  0  0  0  0  0  0  0  0  0  0
  -37.4833    6.2821  -42.0724 C   0  0  0  0  0  0  0  0  0  0  0  0
  -38.8455    6.2514  -42.3709 C   0  0  0  0  0  0  0  0  0  0  0  0
  -39.3514    5.2913  -43.2288 C   0  0  0  0  0  0  0  0  0  0  0  0
  -38.5219    4.3498  -43.8037 C   0  0  0  0  0  0  0  0  0  0  0  0
  -37.1608    4.3555  -43.5250 C   0  0  0  0  0  0  0  0  0  0  0  0
  -36.9464    7.3004  -41.1631 C   0  0  0  0  0  0  0  0  0  0  0  0
  -35.7606    7.3212  -40.9079 O   0  0  0  0  0  0  0  0  0  0  0  0
  -38.0288    8.4988  -40.4383 X   0  0  0  0  0  0  0  0  0  0  0  0
  1  2  1  0  0  0  0
  2  3  1  0  0  0  0
  2 10  1  0  0  0  0
  3  4  2  0  0  0  0
  4  5  1  0  0  0  0
  5  6  2  0  0  0  0
  5 10  1  0  0  0  0
  6  7  1  0  0  0  0
  6 11  1  0  0  0  0
  7  8  2  0  0  0  0
  8  9  1  0  0  0  0
  9 10  2  0  0  0  0
 11 12  2  0  0  0  0
 11 13  1  0  0  0  0
M  END
> <Index>
8850

> <PropertyFieldDistance>
nan

$$$$
10903498
BBcorina  12272117083D 1   1.00000     0.00000 
CORINA 4.3.0 0026  30.10.2019
 14 14  0  0  0  0  0  0  0  0999 V2000
  -35.6173    1.7386  -45.8434 C   0  0  0  0  0  0  0  0  0  0  0  0
  -36.6766    2.6717  -45.2535 C   0  0  0  0  0  0  0  0  0  0  0  0
  -37.9271    1.8644  -44.8992 C   0  0  0  0  0  0  0  0  0  0  0  0
  -36.1464    3.3104  -44.0415 N   0  0  0  0  0  0  0  0  0  0  0  0
  -37.0919    4.3034  -43.5128 C   0  0  0  0  0  0  0  0  0  0  0  0
  -36.5396    4.8868  -42.2101 C   0  0  0  0  0  0  0  0  0  0  0  0
  -35.2278    5.4975  -42.4673 N   0  0  0  0  0  0  0  0  0  0  0  0
  -34.6977    6.1361  -41.2553 C   0  0  0  0  0  0  0  0  0  0  0  0
  -33.2398    6.5385  -41.4869 C   0  0  0  0  0  0  0  0  0  0  0  0
  -32.6959    7.1936  -40.2435 C   0  0  0  0  0  0  0  0  0  0  0  0
  -33.4015    7.3250  -39.2723 O   0  0  0  0  0  0  0  0  0  0  0  0
  -34.2823    4.5044  -42.9960 C   0  0  0  0  0  0  0  0  0  0  0  0
  -34.8348    3.9210  -44.2987 C   0  0  0  0  0  0  0  0  0  0  0  0
  -31.0207    7.7638  -40.2041 X   0  0  0  0  0  0  0  0  0  0  0  0
  1  2  1  0  0  0  0
  2  3  1  0  0  0  0
  2  4  1  0  0  0  0
  4  5  1  0  0  0  0
  4 13  1  0  0  0  0
  5  6  1  0  0  0  0
  6  7  1  0  0  0  0
  7  8  1  0  0  0  0
  7 12  1  0  0  0  0
  8  9  1  0  0  0  0
  9 10  1  0  0  0  0
 10 11  2  0  0  0  0
 10 14  1  0  0  0  0
 12 13  1  0  0  0  0
M  END
> <Index>
8853

> <PropertyFieldDistance>
nan

$$$$
10903504
BBcorina  12272117083D 1   1.00000     0.00000 
CORINA 4.3.0 0026  30.10.2019
 15 15  0  0  0  0  0  0  0  0999 V2000
  -35.6173    1.7386  -45.8434 C   0  0  0  0  0  0  0  0  0  0  0  0
  -36.6766    2.6718  -45.2535 C   0  0  0  0  0  0  0  0  0  0  0  0
  -37.9271    1.8645  -44.8993 C   0  0  0  0  0  0  0  0  0  0  0  0
  -36.1465    3.3103  -44.0415 N   0  0  0  0  0  0  0  0  0  0  0  0
  -37.0920    4.3034  -43.5128 C   0  0  0  0  0  0  0  0  0  0  0  0
  -36.5395    4.8869  -42.2101 C   0  0  0  0  0  0  0  0  0  0  0  0
  -35.2278    5.4975  -42.4674 N   0  0  0  0  0  0  0  0  0  0  0  0
  -34.6976    6.1361  -41.2553 C   0  0  0  0  0  0  0  0  0  0  0  0
  -33.2398    6.5384  -41.4868 C   0  0  0  0  0  0  0  0  0  0  0  0
  -32.6876    7.2035  -40.2245 C   0  0  0  0  0  0  0  0  0  0  0  0
  -31.2517    7.5999  -40.4525 C   0  0  0  0  0  0  0  0  0  0  0  0
  -30.7243    7.3738  -41.5151 O   0  0  0  0  0  0  0  0  0  0  0  0
  -34.2824    4.5044  -42.9960 C   0  0  0  0  0  0  0  0  0  0  0  0
  -34.8348    3.9210  -44.2986 C   0  0  0  0  0  0  0  0  0  0  0  0
  -30.3380    8.3969  -39.1630 X   0  0  0  0  0  0  0  0  0  0  0  0
  1  2  1  0  0  0  0
  2  3  1  0  0  0  0
  2  4  1  0  0  0  0
  4  5  1  0  0  0  0
  4 14  1  0  0  0  0
  5  6  1  0  0  0  0
  6  7  1  0  0  0  0
  7  8  1  0  0  0  0
  7 13  1  0  0  0  0
  8  9  1  0  0  0  0
  9 10  1  0  0  0  0
 10 11  1  0  0  0  0
 11 12  2  0  0  0  0
 11 15  1  0  0  0  0
 13 14  1  0  0  0  0
M  END
> <Index>
8855

> <PropertyFieldDistance>
nan

$$$$
10890232
BBcorina  12272117083D 1   1.00000     0.00000 
CORINA 4.3.0 0026  30.10.2019
 13 13  0  0  0  0  0  0  0  0999 V2000
  -36.9662    2.0475  -47.6927 C   0  0  0  0  0  0  0  0  0  0  0  0
  -36.6297    3.2677  -46.8331 C   0  0  0  0  0  0  0  0  0  0  0  0
  -36.3545    2.8469  -45.4956 O   0  0  0  0  0  0  0  0  0  0  0  0
  -36.0192    3.9414  -44.5845 N   0  0  0  0  0  0  0  0  0  0  0  0
  -36.9723    4.0086  -43.4695 C   0  0  0  0  0  0  0  0  0  0  0  0
  -36.6793    5.2476  -42.6202 C   0  0  0  0  0  0  0  0  0  0  0  0
  -35.2462    5.1677  -42.0870 C   0  0  0  0  0  0  0  0  0  0  0  0
  -34.9269    6.4323  -41.2874 C   0  0  0  0  0  0  0  0  0  0  0  0
  -33.5626    6.2996  -40.6611 C   0  0  0  0  0  0  0  0  0  0  0  0
  -32.9128    5.2969  -40.8362 O   0  0  0  0  0  0  0  0  0  0  0  0
  -34.2769    5.0496  -43.2665 C   0  0  0  0  0  0  0  0  0  0  0  0
  -34.6396    3.8164  -44.0970 C   0  0  0  0  0  0  0  0  0  0  0  0
  -32.9127    7.6133  -39.6687 X   0  0  0  0  0  0  0  0  0  0  0  0
  1  2  1  0  0  0  0
  2  3  1  0  0  0  0
  3  4  1  0  0  0  0
  4  5  1  0  0  0  0
  4 12  1  0  0  0  0
  5  6  1  0  0  0  0
  6  7  1  0  0  0  0
  7  8  1  0  0  0  0
  7 11  1  0  0  0  0
  8  9  1  0  0  0  0
  9 10  2  0  0  0  0
  9 13  1  0  0  0  0
 11 12  1  0  0  0  0
M  END
> <Index>
8861

> <PropertyFieldDistance>
nan

$$$$
17542562
BBcorina  12272117083D 1   1.00000     0.00000 
CORINA 4.3.0 0026  30.10.2019
 11 12  0  0  0  0  0  0  0  0999 V2000
  -37.7357    4.8174  -45.0751 C   0  0  0  0  0  0  0  0  0  0  0  0
  -38.1767    4.0519  -45.8985 O   0  0  0  0  0  0  0  0  0  0  0  0
  -37.0483    4.2858  -43.8439 C   0  0  0  0  0  0  0  0  0  0  0  0
  -37.0273    2.7373  -43.8524 C   0  0  0  0  0  0  0  0  0  0  0  0
  -35.8376    2.3681  -42.9435 C   0  0  0  0  0  0  0  0  0  0  0  0
  -35.0566    1.2063  -43.5901 C   0  0  0  0  0  0  0  0  0  0  0  0
  -33.5691    1.5829  -43.3808 C   0  0  0  0  0  0  0  0  0  0  0  0
  -33.5719    3.1168  -43.5940 C   0  0  0  0  0  0  0  0  0  0  0  0
  -34.8893    3.5884  -42.9460 C   0  0  0  0  0  0  0  0  0  0  0  0
  -35.5427    4.6478  -43.8563 C   0  0  0  0  0  0  0  0  0  0  0  0
  -37.8965    6.5637  -45.3145 X   0  0  0  0  0  0  0  0  0  0  0  0
  1  2  2  0  0  0  0
  1  3  1  0  0  0  0
  1 11  1  0  0  0  0
  3  4  1  0  0  0  0
  3 10  1  0  0  0  0
  4  5  1  0  0  0  0
  5  6  1  0  0  0  0
  5  9  1  0  0  0  0
  6  7  1  0  0  0  0
  7  8  1  0  0  0  0
  8  9  1  0  0  0  0
  9 10  1  0  0  0  0
M  END
> <Index>
8863

> <PropertyFieldDistance>
nan

$$$$
17056360
BBcorina  12272117083D 1   1.00000     0.00000 
CORINA 4.3.0 0026  30.10.2019
 12 13  0  0  0  0  0  0  0  0999 V2000
  -34.3807    1.0596  -43.3112 C   0  0  0  0  0  0  0  0  0  0  0  0
  -33.8313    1.3958  -42.2897 O   0  0  0  0  0  0  0  0  0  0  0  0
  -35.5668    1.8377  -43.8200 C   0  0  0  0  0  0  0  0  0  0  0  0
  -36.3276    2.4292  -42.6346 C   0  0  0  0  0  0  0  0  0  0  0  0
  -36.3116    3.9602  -42.7150 C   0  0  0  0  0  0  0  0  0  0  0  0
  -37.0086    4.3809  -44.0157 C   0  0  0  0  0  0  0  0  0  0  0  0
  -36.2723    3.7849  -45.2146 C   0  0  0  0  0  0  0  0  0  0  0  0
  -35.0797    2.9468  -44.7529 C   0  0  0  0  0  0  0  0  0  0  0  0
  -34.0912    3.8466  -43.9938 C   0  0  0  0  0  0  0  0  0  0  0  0
  -34.8608    4.4073  -42.8083 C   0  0  0  0  0  0  0  0  0  0  0  0
  -34.3579    5.1521  -42.0016 O   0  0  0  0  0  0  0  0  0  0  0  0
  -33.7931   -0.3470  -44.2106 X   0  0  0  0  0  0  0  0  0  0  0  0
  1  2  2  0  0  0  0
  1  3  1  0  0  0  0
  1 12  1  0  0  0  0
  3  4  1  0  0  0  0
  3  8  1  0  0  0  0
  4  5  1  0  0  0  0
  5  6  1  0  0  0  0
  5 10  1  0  0  0  0
  6  7  1  0  0  0  0
  7  8  1  0  0  0  0
  8  9  1  0  0  0  0
  9 10  1  0  0  0  0
 10 11  2  0  0  0  0
M  END
> <Index>
8871

> <PropertyFieldDistance>
nan

$$$$
13033436
BBcorina  12272117083D 1   1.00000     0.00000 
CORINA 4.3.0 0026  30.10.2019
 12 13  0  0  0  0  0  0  0  0999 V2000
  -34.7948    2.4535  -46.6025 C   0  0  0  0  0  0  0  0  0  0  0  0
  -33.8513    1.7056  -46.5091 O   0  0  0  0  0  0  0  0  0  0  0  0
  -35.4183    3.0385  -45.3614 C   0  0  0  0  0  0  0  0  0  0  0  0
  -36.8850    2.6065  -45.2721 C   0  0  0  0  0  0  0  0  0  0  0  0
  -37.5043    3.1707  -43.9914 C   0  0  0  0  0  0  0  0  0  0  0  0
  -36.7796    2.6850  -42.8578 O   0  0  0  0  0  0  0  0  0  0  0  0
  -35.3921    3.0234  -42.8693 C   0  0  0  0  0  0  0  0  0  0  0  0
  -34.6598    2.6768  -41.5667 C   0  0  0  0  0  0  0  0  0  0  0  0
  -35.0451    4.0816  -41.0717 C   0  0  0  0  0  0  0  0  0  0  0  0
  -35.1174    4.4989  -42.5507 C   0  0  0  0  0  0  0  0  0  0  0  0
  -34.6722    2.5283  -44.1230 C   0  0  0  0  0  0  0  0  0  0  0  0
  -35.4456    2.8626  -48.1969 X   0  0  0  0  0  0  0  0  0  0  0  0
  1  2  2  0  0  0  0
  1  3  1  0  0  0  0
  1 12  1  0  0  0  0
  3  4  1  0  0  0  0
  3 11  1  0  0  0  0
  4  5  1  0  0  0  0
  5  6  1  0  0  0  0
  6  7  1  0  0  0  0
  7  8  1  0  0  0  0
  7 10  1  0  0  0  0
  7 11  1  0  0  0  0
  8  9  1  0  0  0  0
  9 10  1  0  0  0  0
M  END
> <Index>
8914

> <PropertyFieldDistance>
nan

$$$$
18181994
BBcorina  12272117083D 1   1.00000     0.00000 
CORINA 4.3.0 0026  30.10.2019
  9  9  0  0  0  0  0  0  0  0999 V2000
  -36.9134    6.2801  -42.1111 C   0  0  0  0  0  0  0  0  0  0  0  0
  -36.1267    7.1960  -42.0949 O   0  0  0  0  0  0  0  0  0  0  0  0
  -36.4463    4.8916  -42.4646 C   0  0  0  0  0  0  0  0  0  0  0  0
  -37.0412    4.4352  -43.8152 C   0  0  0  0  0  0  0  0  0  0  0  0
  -35.9837    3.6514  -44.4640 N   0  0  0  0  0  0  0  0  0  0  0  0
  -34.7864    3.8849  -43.8993 C   0  0  0  0  0  0  0  0  0  0  0  0
  -33.7428    3.3741  -44.2470 O   0  0  0  0  0  0  0  0  0  0  0  0
  -34.9300    4.8784  -42.7675 C   0  0  0  0  0  0  0  0  0  0  0  0
  -38.6154    6.5683  -41.7198 X   0  0  0  0  0  0  0  0  0  0  0  0
  1  2  2  0  0  0  0
  1  3  1  0  0  0  0
  1  9  1  0  0  0  0
  3  4  1  0  0  0  0
  3  8  1  0  0  0  0
  4  5  1  0  0  0  0
  5  6  1  0  0  0  0
  6  7  2  0  0  0  0
  6  8  1  0  0  0  0
M  END
> <Index>
8962

> <PropertyFieldDistance>
nan

$$$$
15498298
BBcorina  12272117083D 1   1.00000     0.00000 
CORINA 4.3.0 0026  30.10.2019
  8  8  0  0  0  0  0  0  0  0999 V2000
  -37.3603    5.7585  -44.7304 C   0  0  0  0  0  0  0  0  0  0  0  0
  -36.6116    5.9550  -45.6574 O   0  0  0  0  0  0  0  0  0  0  0  0
  -37.1939    4.5289  -43.8751 C   0  0  0  0  0  0  0  0  0  0  0  0
  -36.4651    4.7811  -42.5513 C   0  0  0  0  0  0  0  0  0  0  0  0
  -35.3268    3.9211  -43.0441 C   0  0  0  0  0  0  0  0  0  0  0  0
  -34.2586    3.5594  -42.5979 O   0  0  0  0  0  0  0  0  0  0  0  0
  -36.0046    3.7318  -44.1971 N   0  0  0  0  0  0  0  0  0  0  0  0
  -38.6530    6.9146  -44.3765 X   0  0  0  0  0  0  0  0  0  0  0  0
  1  2  2  0  0  0  0
  1  3  1  0  0  0  0
  1  8  1  0  0  0  0
  3  4  1  0  0  0  0
  3  7  1  0  0  0  0
  4  5  1  0  0  0  0
  5  6  2  0  0  0  0
  5  7  1  0  0  0  0
M  END
> <Index>
8963

> <PropertyFieldDistance>
nan

$$$$
12102914
BBcorina  12272117083D 1   1.00000     0.00000 
CORINA 4.3.0 0026  30.10.2019
 10 10  0  0  0  0  0  0  0  0999 V2000
  -36.1049    2.4025  -44.8646 C   0  0  0  0  0  0  0  0  0  0  0  0
  -36.0789    3.5458  -43.9491 N   0  0  0  0  0  0  0  0  0  0  0  0
  -37.2468    4.3468  -43.5527 C   0  0  0  0  0  0  0  0  0  0  0  0
  -36.6628    5.4012  -42.5926 C   0  0  0  0  0  0  0  0  0  0  0  0
  -35.2279    5.0824  -42.5498 N   0  0  0  0  0  0  0  0  0  0  0  0
  -34.9876    4.0277  -43.3398 C   0  0  0  0  0  0  0  0  0  0  0  0
  -33.8794    3.5506  -43.4901 O   0  0  0  0  0  0  0  0  0  0  0  0
  -37.8651    5.0115  -44.7556 C   0  0  0  0  0  0  0  0  0  0  0  0
  -37.4027    4.8215  -45.8548 O   0  0  0  0  0  0  0  0  0  0  0  0
  -39.2738    6.0650  -44.5581 X   0  0  0  0  0  0  0  0  0  0  0  0
  1  2  1  0  0  0  0
  2  3  1  0  0  0  0
  2  6  1  0  0  0  0
  3  4  1  0  0  0  0
  3  8  1  0  0  0  0
  4  5  1  0  0  0  0
  5  6  1  0  0  0  0
  6  7  2  0  0  0  0
  8  9  2  0  0  0  0
  8 10  1  0  0  0  0
M  END
> <Index>
8964

> <PropertyFieldDistance>
nan

$$$$
5455440
BBcorina  12272117083D 1   1.00000     0.00000 
CORINA 4.3.0 0026  30.10.2019
 13 14  0  0  0  0  0  0  0  0999 V2000
  -37.1941    1.8098  -44.6040 C   0  0  0  0  0  0  0  0  0  0  0  0
  -36.4212    0.9111  -44.8346 O   0  0  0  0  0  0  0  0  0  0  0  0
  -36.9584    2.7257  -43.4241 C   0  0  0  0  0  0  0  0  0  0  0  0
  -35.9298    2.1359  -42.4923 C   0  0  0  0  0  0  0  0  0  0  0  0
  -34.5280    2.7229  -42.5808 C   0  0  0  0  0  0  0  0  0  0  0  0
  -33.8247    2.2289  -43.8509 C   0  0  0  0  0  0  0  0  0  0  0  0
  -34.5011    2.7014  -45.0098 O   0  0  0  0  0  0  0  0  0  0  0  0
  -34.6383    4.1110  -45.1447 C   0  0  0  0  0  0  0  0  0  0  0  0
  -35.3821    4.6939  -43.9368 C   0  0  0  0  0  0  0  0  0  0  0  0
  -36.8044    4.1536  -43.8834 C   0  0  0  0  0  0  0  0  0  0  0  0
  -34.6532    4.2338  -42.6853 C   0  0  0  0  0  0  0  0  0  0  0  0
  -34.2166    4.9935  -41.8559 O   0  0  0  0  0  0  0  0  0  0  0  0
  -38.6029    2.0550  -45.6471 X   0  0  0  0  0  0  0  0  0  0  0  0
  1  2  2  0  0  0  0
  1  3  1  0  0  0  0
  1 13  1  0  0  0  0
  3  4  1  0  0  0  0
  3 10  1  0  0  0  0
  4  5  1  0  0  0  0
  5  6  1  0  0  0  0
  5 11  1  0  0  0  0
  6  7  1  0  0  0  0
  7  8  1  0  0  0  0
  8  9  1  0  0  0  0
  9 10  1  0  0  0  0
  9 11  1  0  0  0  0
 11 12  2  0  0  0  0
M  END
> <Index>
8967

> <PropertyFieldDistance>
nan

$$$$
12624666
BBcorina  12272117083D 1   1.00000     0.00000 
CORINA 4.3.0 0026  30.10.2019
 14 15  0  0  0  0  0  0  0  0999 V2000
  -33.0107    1.6801  -43.6564 C   0  0  0  0  0  0  0  0  0  0  0  0
  -31.9732    2.2981  -43.6630 O   0  0  0  0  0  0  0  0  0  0  0  0
  -34.3402    2.4238  -43.6461 C   0  0  0  0  0  0  0  0  0  0  0  0
  -34.0258    3.8989  -43.5434 C   0  0  0  0  0  0  0  0  0  0  0  0
  -35.1561    4.8053  -43.9349 C   0  0  0  0  0  0  0  0  0  0  0  0
  -36.2216    4.8401  -42.8518 C   0  0  0  0  0  0  0  0  0  0  0  0
  -36.4521    3.5444  -42.0838 C   0  0  0  0  0  0  0  0  0  0  0  0
  -37.0867    2.3851  -42.8645 C   0  0  0  0  0  0  0  0  0  0  0  0
  -37.4583    2.7234  -44.2941 C   0  0  0  0  0  0  0  0  0  0  0  0
  -36.2791    2.8943  -45.2416 C   0  0  0  0  0  0  0  0  0  0  0  0
  -35.1337    1.9427  -44.8552 C   0  0  0  0  0  0  0  0  0  0  0  0
  -35.6851    4.2729  -45.2375 C   0  0  0  0  0  0  0  0  0  0  0  0
  -35.6339    4.9335  -46.2491 O   0  0  0  0  0  0  0  0  0  0  0  0
  -32.9867   -0.0897  -43.6662 X   0  0  0  0  0  0  0  0  0  0  0  0
  1  2  2  0  0  0  0
  1  3  1  0  0  0  0
  1 14  1  0  0  0  0
  3  4  1  0  0  0  0
  3 11  1  0  0  0  0
  4  5  1  0  0  0  0
  5  6  1  0  0  0  0
  5 12  1  0  0  0  0
  6  7  1  0  0  0  0
  7  8  1  0  0  0  0
  8  9  1  0  0  0  0
  9 10  1  0  0  0  0
 10 11  1  0  0  0  0
 10 12  1  0  0  0  0
 12 13  2  0  0  0  0
M  END
> <Index>
8968

> <PropertyFieldDistance>
nan

$$$$
17310286
BBcorina  12272117083D 1   1.00000     0.00000 
CORINA 4.3.0 0026  30.10.2019
 16 17  0  0  0  0  0  0  0  0999 V2000
  -36.3354    2.3075  -44.8787 C   0  0  0  0  0  0  0  0  0  0  0  0
  -35.9453    3.3416  -43.9110 N   0  0  0  0  0  0  0  0  0  0  0  0
  -37.0432    4.2897  -43.6828 C   0  0  0  0  0  0  0  0  0  0  0  0
  -36.6554    5.2625  -42.5667 C   0  0  0  0  0  0  0  0  0  0  0  0
  -35.3834    6.0133  -42.9700 C   0  0  0  0  0  0  0  0  0  0  0  0
  -34.2691    5.0007  -43.2489 C   0  0  0  0  0  0  0  0  0  0  0  0
  -34.7262    4.0356  -44.3451 C   0  0  0  0  0  0  0  0  0  0  0  0
  -34.9733    6.9062  -41.8781 N   0  0  0  0  0  0  0  0  0  0  0  0
  -33.7537    7.6439  -42.2313 C   0  0  0  0  0  0  0  0  0  0  0  0
  -33.2756    8.4507  -41.0220 C   0  0  0  0  0  0  0  0  0  0  0  0
  -34.3780    9.4243  -40.5959 C   0  0  0  0  0  0  0  0  0  0  0  0
  -35.6513    8.6346  -40.2802 C   0  0  0  0  0  0  0  0  0  0  0  0
  -36.0605    7.8225  -41.5110 C   0  0  0  0  0  0  0  0  0  0  0  0
  -33.9364   10.1794  -39.3689 C   0  0  0  0  0  0  0  0  0  0  0  0
  -34.5768   10.1001  -38.3481 O   0  0  0  0  0  0  0  0  0  0  0  0
  -32.4792   11.1826  -39.4238 X   0  0  0  0  0  0  0  0  0  0  0  0
  1  2  1  0  0  0  0
  2  3  1  0  0  0  0
  2  7  1  0  0  0  0
  3  4  1  0  0  0  0
  4  5  1  0  0  0  0
  5  6  1  0  0  0  0
  5  8  1  0  0  0  0
  6  7  1  0  0  0  0
  8  9  1  0  0  0  0
  8 13  1  0  0  0  0
  9 10  1  0  0  0  0
 10 11  1  0  0  0  0
 11 12  1  0  0  0  0
 11 14  1  0  0  0  0
 12 13  1  0  0  0  0
 14 15  2  0  0  0  0
 14 16  1  0  0  0  0
M  END
> <Index>
9023

> <PropertyFieldDistance>
nan

$$$$
10264214
BBcorina  12272117083D 1   1.00000     0.00000 
CORINA 4.3.0 0026  30.10.2019
 14 15  0  0  0  0  0  0  0  0999 V2000
  -34.9635    6.9304  -41.8504 C   0  0  0  0  0  0  0  0  0  0  0  0
  -33.8819    6.7934  -41.3310 O   0  0  0  0  0  0  0  0  0  0  0  0
  -35.3833    6.0133  -42.9700 C   0  0  0  0  0  0  0  0  0  0  0  0
  -36.6554    5.2625  -42.5667 C   0  0  0  0  0  0  0  0  0  0  0  0
  -37.0433    4.2897  -43.6828 C   0  0  0  0  0  0  0  0  0  0  0  0
  -35.9453    3.3417  -43.9110 N   0  0  0  0  0  0  0  0  0  0  0  0
  -34.7262    4.0356  -44.3451 C   0  0  0  0  0  0  0  0  0  0  0  0
  -34.2691    5.0007  -43.2489 C   0  0  0  0  0  0  0  0  0  0  0  0
  -36.3353    2.3075  -44.8787 C   0  0  0  0  0  0  0  0  0  0  0  0
  -35.1209    1.4195  -45.2084 C   0  0  0  0  0  0  0  0  0  0  0  0
  -35.6612    0.1722  -45.9559 C   0  0  0  0  0  0  0  0  0  0  0  0
  -37.1683   -0.2350  -44.9922 S   0  0  0  0  0  0  0  0  0  0  0  0
  -37.4478    1.4259  -44.2741 C   0  0  0  0  0  0  0  0  0  0  0  0
  -36.0558    8.2083  -41.2964 X   0  0  0  0  0  0  0  0  0  0  0  0
  1  2  2  0  0  0  0
  1  3  1  0  0  0  0
  1 14  1  0  0  0  0
  3  4  1  0  0  0  0
  3  8  1  0  0  0  0
  4  5  1  0  0  0  0
  5  6  1  0  0  0  0
  6  7  1  0  0  0  0
  6  9  1  0  0  0  0
  7  8  1  0  0  0  0
  9 10  1  0  0  0  0
  9 13  1  0  0  0  0
 10 11  1  0  0  0  0
 11 12  1  0  0  0  0
 12 13  1  0  0  0  0
M  END
> <Index>
9024

> <PropertyFieldDistance>
nan

$$$$
12852496
BBcorina  12272117083D 1   1.00000     0.00000 
CORINA 4.3.0 0026  30.10.2019
 12 12  0  0  0  0  0  0  0  0999 V2000
  -35.9179    1.9571  -46.1220 C   0  0  0  0  0  0  0  0  0  0  0  0
  -36.4447    2.0262  -44.6872 C   0  0  0  0  0  0  0  0  0  0  0  0
  -35.7990    0.9181  -43.8530 C   0  0  0  0  0  0  0  0  0  0  0  0
  -36.1129    3.3301  -44.1076 N   0  0  0  0  0  0  0  0  0  0  0  0
  -37.1043    4.2935  -43.6145 C   0  0  0  0  0  0  0  0  0  0  0  0
  -36.3144    5.2786  -42.7244 C   0  0  0  0  0  0  0  0  0  0  0  0
  -34.8905    5.1681  -43.3172 C   0  0  0  0  0  0  0  0  0  0  0  0
  -34.8616    3.7977  -43.9586 C   0  0  0  0  0  0  0  0  0  0  0  0
  -33.8554    3.2070  -44.2896 O   0  0  0  0  0  0  0  0  0  0  0  0
  -37.7399    5.0268  -44.7674 C   0  0  0  0  0  0  0  0  0  0  0  0
  -37.4369    4.7463  -45.9022 O   0  0  0  0  0  0  0  0  0  0  0  0
  -38.9304    6.2997  -44.4582 X   0  0  0  0  0  0  0  0  0  0  0  0
  1  2  1  0  0  0  0
  2  3  1  0  0  0  0
  2  4  1  0  0  0  0
  4  5  1  0  0  0  0
  4  8  1  0  0  0  0
  5  6  1  0  0  0  0
  5 10  1  0  0  0  0
  6  7  1  0  0  0  0
  7  8  1  0  0  0  0
  8  9  2  0  0  0  0
 10 11  2  0  0  0  0
 10 12  1  0  0  0  0
M  END
> <Index>
9039

> <PropertyFieldDistance>
nan

$$$$
16971630
BBcorina  12272117083D 1   1.00000     0.00000 
CORINA 4.3.0 0026  30.10.2019
 12 13  0  0  0  0  0  0  0  0999 V2000
  -36.0065    2.2676  -44.6441 C   0  0  0  0  0  0  0  0  0  0  0  0
  -36.1575    3.6441  -44.1655 N   0  0  0  0  0  0  0  0  0  0  0  0
  -37.3164    4.3156  -44.0111 C   0  0  0  0  0  0  0  0  0  0  0  0
  -37.0765    5.5162  -43.5666 N   0  0  0  0  0  0  0  0  0  0  0  0
  -35.7480    5.6873  -43.4090 C   0  0  0  0  0  0  0  0  0  0  0  0
  -34.5426    6.8649  -42.9024 S   0  0  0  0  0  0  0  0  0  0  0  0
  -33.2392    5.7291  -43.2114 C   0  0  0  0  0  0  0  0  0  0  0  0
  -33.7473    4.5485  -43.6683 C   0  0  0  0  0  0  0  0  0  0  0  0
  -35.1258    4.5071  -43.7769 C   0  0  0  0  0  0  0  0  0  0  0  0
  -31.8692    5.9977  -43.0153 C   0  0  0  0  0  0  0  0  0  0  0  0
  -31.0416    5.1423  -43.2589 O   0  0  0  0  0  0  0  0  0  0  0  0
  -31.3550    7.5811  -42.4143 X   0  0  0  0  0  0  0  0  0  0  0  0
  1  2  1  0  0  0  0
  2  3  1  0  0  0  0
  2  9  1  0  0  0  0
  3  4  2  0  0  0  0
  4  5  1  0  0  0  0
  5  6  1  0  0  0  0
  5  9  2  0  0  0  0
  6  7  1  0  0  0  0
  7  8  2  0  0  0  0
  7 10  1  0  0  0  0
  8  9  1  0  0  0  0
 10 11  2  0  0  0  0
 10 12  1  0  0  0  0
M  END
> <Index>
9050

> <PropertyFieldDistance>
nan

$$$$
10890226
BBcorina  12272117083D 1   1.00000     0.00000 
CORINA 4.3.0 0026  30.10.2019
 11 11  0  0  0  0  0  0  0  0999 V2000
  -38.5463    2.4034  -44.4838 C   0  0  0  0  0  0  0  0  0  0  0  0
  -37.9173    3.0842  -43.2665 C   0  0  0  0  0  0  0  0  0  0  0  0
  -37.0736    4.2745  -43.7271 C   0  0  0  0  0  0  0  0  0  0  0  0
  -36.4294    4.9757  -42.5106 C   0  0  0  0  0  0  0  0  0  0  0  0
  -35.0503    4.2801  -42.4396 C   0  0  0  0  0  0  0  0  0  0  0  0
  -34.8035    3.8004  -43.8529 C   0  0  0  0  0  0  0  0  0  0  0  0
  -33.7268    3.4544  -44.2909 O   0  0  0  0  0  0  0  0  0  0  0  0
  -35.9513    3.8125  -44.5523 N   0  0  0  0  0  0  0  0  0  0  0  0
  -39.0057    3.5675  -42.3430 C   0  0  0  0  0  0  0  0  0  0  0  0
  -39.0972    4.7426  -42.0803 O   0  0  0  0  0  0  0  0  0  0  0  0
  -40.1501    2.4125  -41.6433 X   0  0  0  0  0  0  0  0  0  0  0  0
  1  2  1  0  0  0  0
  2  3  1  0  0  0  0
  2  9  1  0  0  0  0
  3  4  1  0  0  0  0
  3  8  1  0  0  0  0
  4  5  1  0  0  0  0
  5  6  1  0  0  0  0
  6  7  2  0  0  0  0
  6  8  1  0  0  0  0
  9 10  2  0  0  0  0
  9 11  1  0  0  0  0
M  END
> <Index>
9065

> <PropertyFieldDistance>
nan

$$$$
16474222
BBcorina  12272117083D 1   1.00000     0.00000 
CORINA 4.3.0 0026  30.10.2019
 13 13  0  0  0  0  0  0  0  0999 V2000
  -36.4039    2.4509  -47.0054 F   0  0  0  0  0  0  0  0  0  0  0  0
  -36.8336    1.8514  -45.8167 C   0  0  0  0  0  0  0  0  0  0  0  0
  -36.9072    0.4655  -45.9934 F   0  0  0  0  0  0  0  0  0  0  0  0
  -38.0970    2.3457  -45.4752 F   0  0  0  0  0  0  0  0  0  0  0  0
  -35.8413    2.1706  -44.6968 C   0  0  0  0  0  0  0  0  0  0  0  0
  -35.7640    3.6259  -44.5111 N   0  0  0  0  0  0  0  0  0  0  0  0
  -37.0173    4.1532  -43.9411 C   0  0  0  0  0  0  0  0  0  0  0  0
  -36.6510    4.8957  -42.6385 C   0  0  0  0  0  0  0  0  0  0  0  0
  -35.1501    5.2332  -42.8394 C   0  0  0  0  0  0  0  0  0  0  0  0
  -34.6487    3.9866  -43.6101 C   0  0  0  0  0  0  0  0  0  0  0  0
  -33.4167    4.3244  -44.4096 C   0  0  0  0  0  0  0  0  0  0  0  0
  -33.4299    4.2195  -45.6125 O   0  0  0  0  0  0  0  0  0  0  0  0
  -31.9503    4.8750  -43.5853 X   0  0  0  0  0  0  0  0  0  0  0  0
  1  2  1  0  0  0  0
  2  3  1  0  0  0  0
  2  4  1  0  0  0  0
  2  5  1  0  0  0  0
  5  6  1  0  0  0  0
  6  7  1  0  0  0  0
  6 10  1  0  0  0  0
  7  8  1  0  0  0  0
  8  9  1  0  0  0  0
  9 10  1  0  0  0  0
 10 11  1  0  0  0  0
 11 12  2  0  0  0  0
 11 13  1  0  0  0  0
M  END
> <Index>
9077

> <PropertyFieldDistance>
nan

$$$$
10117804
BBcorina  12272117083D 1   1.00000     0.00000 
CORINA 4.3.0 0026  30.10.2019
 11 11  0  0  0  0  0  0  0  0999 V2000
  -35.5896    1.5866  -45.6372 C   0  0  0  0  0  0  0  0  0  0  0  0
  -36.6723    2.5249  -45.1003 C   0  0  0  0  0  0  0  0  0  0  0  0
  -36.1071    3.3676  -44.0380 N   0  0  0  0  0  0  0  0  0  0  0  0
  -37.0858    4.3639  -43.5791 C   0  0  0  0  0  0  0  0  0  0  0  0
  -36.4780    5.1790  -42.4344 C   0  0  0  0  0  0  0  0  0  0  0  0
  -35.2598    5.7817  -42.8796 O   0  0  0  0  0  0  0  0  0  0  0  0
  -34.2836    4.8401  -43.3331 C   0  0  0  0  0  0  0  0  0  0  0  0
  -34.8692    4.0216  -44.4868 C   0  0  0  0  0  0  0  0  0  0  0  0
  -37.8114    1.7107  -44.5431 C   0  0  0  0  0  0  0  0  0  0  0  0
  -38.1237    1.8248  -43.3821 O   0  0  0  0  0  0  0  0  0  0  0  0
  -38.6963    0.5928  -45.5919 X   0  0  0  0  0  0  0  0  0  0  0  0
  1  2  1  0  0  0  0
  2  3  1  0  0  0  0
  2  9  1  0  0  0  0
  3  4  1  0  0  0  0
  3  8  1  0  0  0  0
  4  5  1  0  0  0  0
  5  6  1  0  0  0  0
  6  7  1  0  0  0  0
  7  8  1  0  0  0  0
  9 10  2  0  0  0  0
  9 11  1  0  0  0  0
M  END
> <Index>
9095

> <PropertyFieldDistance>
nan

$$$$
7117168
BBcorina  12272117083D 1   1.00000     0.00000 
CORINA 4.3.0 0026  30.10.2019
 10 10  0  0  0  0  0  0  0  0999 V2000
  -36.7887    5.1756  -42.4431 C   0  0  0  0  0  0  0  0  0  0  0  0
  -36.3489    5.7918  -43.3840 O   0  0  0  0  0  0  0  0  0  0  0  0
  -36.6568    3.6751  -42.3970 C   0  0  0  0  0  0  0  0  0  0  0  0
  -35.9326    3.1880  -43.6537 C   0  0  0  0  0  0  0  0  0  0  0  0
  -35.9119    1.6623  -43.6621 C   0  0  0  0  0  0  0  0  0  0  0  0
  -35.4417    1.1536  -45.0274 C   0  0  0  0  0  0  0  0  0  0  0  0
  -33.7344    1.7115  -45.3053 S   0  0  0  0  0  0  0  0  0  0  0  0
  -33.8654    3.5031  -45.0298 C   0  0  0  0  0  0  0  0  0  0  0  0
  -34.5131    3.7473  -43.6642 C   0  0  0  0  0  0  0  0  0  0  0  0
  -37.5883    6.0349  -41.1183 X   0  0  0  0  0  0  0  0  0  0  0  0
  1  2  2  0  0  0  0
  1  3  1  0  0  0  0
  1 10  1  0  0  0  0
  3  4  1  0  0  0  0
  4  5  1  0  0  0  0
  4  9  1  0  0  0  0
  5  6  1  0  0  0  0
  6  7  1  0  0  0  0
  7  8  1  0  0  0  0
  8  9  1  0  0  0  0
M  END
> <Index>
9109

> <PropertyFieldDistance>
nan

$$$$
7080920
BBcorina  12272117083D 1   1.00000     0.00000 
CORINA 4.3.0 0026  30.10.2019
 14 14  0  0  0  0  0  0  0  0999 V2000
  -34.8405    7.9357  -41.3149 C   0  0  0  0  0  0  0  0  0  0  0  0
  -35.2306    7.4225  -43.0105 S   0  0  0  0  0  0  0  0  0  0  0  0
  -34.1058    7.6081  -43.8588 O   0  0  0  0  0  0  0  0  0  0  0  0
  -36.5184    7.8889  -43.3888 O   0  0  0  0  0  0  0  0  0  0  0  0
  -35.4034    5.7783  -42.9152 N   0  0  0  0  0  0  0  0  0  0  0  0
  -36.7132    5.1720  -42.6320 C   0  0  0  0  0  0  0  0  0  0  0  0
  -36.9933    4.1011  -43.6916 C   0  0  0  0  0  0  0  0  0  0  0  0
  -35.8688    3.1570  -43.7382 N   0  0  0  0  0  0  0  0  0  0  0  0
  -36.1724    2.0198  -44.6170 C   0  0  0  0  0  0  0  0  0  0  0  0
  -36.3244    2.5072  -46.0349 C   0  0  0  0  0  0  0  0  0  0  0  0
  -36.2964    3.6908  -46.2728 O   0  0  0  0  0  0  0  0  0  0  0  0
  -34.6281    3.8259  -44.1523 C   0  0  0  0  0  0  0  0  0  0  0  0
  -34.2524    4.8854  -43.1176 C   0  0  0  0  0  0  0  0  0  0  0  0
  -36.5440    1.3449  -47.3517 X   0  0  0  0  0  0  0  0  0  0  0  0
  1  2  1  0  0  0  0
  2  3  2  0  0  0  0
  2  4  2  0  0  0  0
  2  5  1  0  0  0  0
  5  6  1  0  0  0  0
  5 13  1  0  0  0  0
  6  7  1  0  0  0  0
  7  8  1  0  0  0  0
  8  9  1  0  0  0  0
  8 12  1  0  0  0  0
  9 10  1  0  0  0  0
 10 11  2  0  0  0  0
 10 14  1  0  0  0  0
 12 13  1  0  0  0  0
M  END
> <Index>
9162

> <PropertyFieldDistance>
nan

$$$$
17567676
BBcorina  12272117083D 1   1.00000     0.00000 
CORINA 4.3.0 0026  30.10.2019
 12 13  0  0  0  0  0  0  0  0999 V2000
  -36.8350    3.8636  -40.4791 C   0  0  0  0  0  0  0  0  0  0  0  0
  -36.9159    5.0658  -40.3969 O   0  0  0  0  0  0  0  0  0  0  0  0
  -36.5027    3.2193  -41.8003 C   0  0  0  0  0  0  0  0  0  0  0  0
  -36.3183    4.3033  -42.8643 C   0  0  0  0  0  0  0  0  0  0  0  0
  -37.6138    5.1199  -43.0449 C   0  0  0  0  0  0  0  0  0  0  0  0
  -37.6344    5.4021  -44.5776 C   0  0  0  0  0  0  0  0  0  0  0  0
  -37.0492    4.0813  -45.1366 C   0  0  0  0  0  0  0  0  0  0  0  0
  -35.9906    3.7033  -44.1753 N   0  0  0  0  0  0  0  0  0  0  0  0
  -34.6909    4.2458  -44.6257 C   0  0  0  0  0  0  0  0  0  0  0  0
  -33.9736    4.6913  -43.3275 C   0  0  0  0  0  0  0  0  0  0  0  0
  -35.1563    5.2459  -42.4906 C   0  0  0  0  0  0  0  0  0  0  0  0
  -37.1066    2.8585  -39.0477 X   0  0  0  0  0  0  0  0  0  0  0  0
  1  2  2  0  0  0  0
  1  3  1  0  0  0  0
  1 12  1  0  0  0  0
  3  4  1  0  0  0  0
  4  5  1  0  0  0  0
  4  8  1  0  0  0  0
  4 11  1  0  0  0  0
  5  6  1  0  0  0  0
  6  7  1  0  0  0  0
  7  8  1  0  0  0  0
  8  9  1  0  0  0  0
  9 10  1  0  0  0  0
 10 11  1  0  0  0  0
M  END
> <Index>
9169

> <PropertyFieldDistance>
nan

$$$$
10269102
BBcorina  12272117083D 1   1.00000     0.00000 
CORINA 4.3.0 0026  30.10.2019
 11 11  0  0  0  0  0  0  0  0999 V2000
  -38.6879    2.5845  -44.5110 C   0  0  0  0  0  0  0  0  0  0  0  0
  -38.3126    2.9058  -45.6130 O   0  0  0  0  0  0  0  0  0  0  0  0
  -38.1145    3.2611  -43.2926 C   0  0  0  0  0  0  0  0  0  0  0  0
  -37.0858    4.3073  -43.7269 C   0  0  0  0  0  0  0  0  0  0  0  0
  -36.6105    5.0832  -42.4979 C   0  0  0  0  0  0  0  0  0  0  0  0
  -35.4242    5.9661  -42.9033 C   0  0  0  0  0  0  0  0  0  0  0  0
  -34.2412    5.0582  -43.2491 C   0  0  0  0  0  0  0  0  0  0  0  0
  -34.6862    3.9752  -44.1895 C   0  0  0  0  0  0  0  0  0  0  0  0
  -33.8386    3.3740  -44.8148 O   0  0  0  0  0  0  0  0  0  0  0  0
  -35.9635    3.6397  -44.3742 N   0  0  0  0  0  0  0  0  0  0  0  0
  -39.9115    1.3189  -44.3269 X   0  0  0  0  0  0  0  0  0  0  0  0
  1  2  2  0  0  0  0
  1  3  1  0  0  0  0
  1 11  1  0  0  0  0
  3  4  1  0  0  0  0
  4  5  1  0  0  0  0
  4 10  1  0  0  0  0
  5  6  1  0  0  0  0
  6  7  1  0  0  0  0
  7  8  1  0  0  0  0
  8  9  2  0  0  0  0
  8 10  1  0  0  0  0
M  END
> <Index>
9231

> <PropertyFieldDistance>
nan

$$$$
14475466
BBcorina  12272117083D 1   1.00000     0.00000 
CORINA 4.3.0 0026  30.10.2019
 12 12  0  0  0  0  0  0  0  0999 V2000
  -36.2170    1.9418  -46.0290 C   0  0  0  0  0  0  0  0  0  0  0  0
  -36.2792    2.1031  -44.5088 C   0  0  0  0  0  0  0  0  0  0  0  0
  -35.9619    3.4879  -44.1514 N   0  0  0  0  0  0  0  0  0  0  0  0
  -36.9627    4.4004  -44.0656 C   0  0  0  0  0  0  0  0  0  0  0  0
  -36.7077    5.6859  -43.7325 C   0  0  0  0  0  0  0  0  0  0  0  0
  -35.3801    6.0956  -43.4734 C   0  0  0  0  0  0  0  0  0  0  0  0
  -34.3614    5.1618  -43.5679 C   0  0  0  0  0  0  0  0  0  0  0  0
  -34.6820    3.8340  -43.9190 C   0  0  0  0  0  0  0  0  0  0  0  0
  -33.7990    2.9969  -44.0074 O   0  0  0  0  0  0  0  0  0  0  0  0
  -35.0834    7.4979  -43.1083 C   0  0  0  0  0  0  0  0  0  0  0  0
  -33.9447    7.8370  -42.8891 O   0  0  0  0  0  0  0  0  0  0  0  0
  -36.3966    8.6790  -42.9925 X   0  0  0  0  0  0  0  0  0  0  0  0
  1  2  1  0  0  0  0
  2  3  1  0  0  0  0
  3  4  1  0  0  0  0
  3  8  1  0  0  0  0
  4  5  2  0  0  0  0
  5  6  1  0  0  0  0
  6  7  2  0  0  0  0
  6 10  1  0  0  0  0
  7  8  1  0  0  0  0
  8  9  2  0  0  0  0
 10 11  2  0  0  0  0
 10 12  1  0  0  0  0
M  END
> <Index>
9250

> <PropertyFieldDistance>
nan

$$$$
12879768
BBcorina  12272117083D 1   1.00000     0.00000 
CORINA 4.3.0 0026  30.10.2019
 12 12  0  0  0  0  0  0  0  0999 V2000
  -34.2482   -0.0191  -46.9718 C   0  0  0  0  0  0  0  0  0  0  0  0
  -33.2057    0.4679  -46.6053 O   0  0  0  0  0  0  0  0  0  0  0  0
  -35.5569    0.5469  -46.4839 C   0  0  0  0  0  0  0  0  0  0  0  0
  -35.2966    1.6729  -45.5836 N   0  0  0  0  0  0  0  0  0  0  0  0
  -36.3253    2.3385  -45.0222 C   0  0  0  0  0  0  0  0  0  0  0  0
  -37.4693    2.0045  -45.2630 O   0  0  0  0  0  0  0  0  0  0  0  0
  -36.0858    3.3744  -44.1939 N   0  0  0  0  0  0  0  0  0  0  0  0
  -37.1090    4.1842  -43.5165 C   0  0  0  0  0  0  0  0  0  0  0  0
  -36.3706    5.2610  -42.6939 C   0  0  0  0  0  0  0  0  0  0  0  0
  -34.9922    5.3534  -43.4001 C   0  0  0  0  0  0  0  0  0  0  0  0
  -34.7543    3.8791  -43.8120 C   0  0  0  0  0  0  0  0  0  0  0  0
  -34.2392   -1.3975  -48.0822 X   0  0  0  0  0  0  0  0  0  0  0  0
  1  2  2  0  0  0  0
  1  3  1  0  0  0  0
  1 12  1  0  0  0  0
  3  4  1  0  0  0  0
  4  5  1  0  0  0  0
  5  6  2  0  0  0  0
  5  7  1  0  0  0  0
  7  8  1  0  0  0  0
  7 11  1  0  0  0  0
  8  9  1  0  0  0  0
  9 10  1  0  0  0  0
 10 11  1  0  0  0  0
M  END
> <Index>
9444

> <PropertyFieldDistance>
nan

$$$$
15261040
BBcorina  12272117083D 1   1.00000     0.00000 
CORINA 4.3.0 0026  30.10.2019
 13 14  0  0  0  0  0  0  0  0999 V2000
  -36.4460    2.2264  -44.7332 C   0  0  0  0  0  0  0  0  0  0  0  0
  -35.9472    3.4988  -44.2053 N   0  0  0  0  0  0  0  0  0  0  0  0
  -36.6997    4.5547  -43.8009 C   0  0  0  0  0  0  0  0  0  0  0  0
  -35.9280    5.5209  -43.3891 N   0  0  0  0  0  0  0  0  0  0  0  0
  -34.6375    5.1529  -43.5007 C   0  0  0  0  0  0  0  0  0  0  0  0
  -33.4127    5.7938  -43.2064 C   0  0  0  0  0  0  0  0  0  0  0  0
  -32.2127    5.1201  -43.4434 C   0  0  0  0  0  0  0  0  0  0  0  0
  -32.2227    3.8396  -43.9607 C   0  0  0  0  0  0  0  0  0  0  0  0
  -33.4160    3.2051  -44.2511 C   0  0  0  0  0  0  0  0  0  0  0  0
  -34.6230    3.8501  -44.0258 C   0  0  0  0  0  0  0  0  0  0  0  0
  -33.4021    7.1530  -42.6568 C   0  0  0  0  0  0  0  0  0  0  0  0
  -34.4480    7.7331  -42.4531 O   0  0  0  0  0  0  0  0  0  0  0  0
  -31.8635    7.9475  -42.2906 X   0  0  0  0  0  0  0  0  0  0  0  0
  1  2  1  0  0  0  0
  2  3  1  0  0  0  0
  2 10  1  0  0  0  0
  3  4  2  0  0  0  0
  4  5  1  0  0  0  0
  5  6  2  0  0  0  0
  5 10  1  0  0  0  0
  6  7  1  0  0  0  0
  6 11  1  0  0  0  0
  7  8  2  0  0  0  0
  8  9  1  0  0  0  0
  9 10  2  0  0  0  0
 11 12  2  0  0  0  0
 11 13  1  0  0  0  0
M  END
> <Index>
9506

> <PropertyFieldDistance>
nan

$$$$
15770788
BBcorina  12272117083D 1   1.00000     0.00000 
CORINA 4.3.0 0026  30.10.2019
 11 11  0  0  0  0  0  0  0  0999 V2000
  -33.2617    1.8839  -44.3364 C   0  0  0  0  0  0  0  0  0  0  0  0
  -33.2453    0.6764  -44.3431 O   0  0  0  0  0  0  0  0  0  0  0  0
  -34.5769    2.6196  -44.3262 C   0  0  0  0  0  0  0  0  0  0  0  0
  -34.6128    3.5250  -43.1025 C   0  0  0  0  0  0  0  0  0  0  0  0
  -35.3937    4.7334  -43.5459 C   0  0  0  0  0  0  0  0  0  0  0  0
  -36.8555    4.6328  -43.0471 C   0  0  0  0  0  0  0  0  0  0  0  0
  -37.3584    3.1724  -43.1495 C   0  0  0  0  0  0  0  0  0  0  0  0
  -36.9840    2.4318  -44.3739 C   0  0  0  0  0  0  0  0  0  0  0  0
  -37.7000    2.4494  -45.3462 O   0  0  0  0  0  0  0  0  0  0  0  0
  -35.6588    1.6350  -44.3865 C   0  0  0  0  0  0  0  0  0  0  0  0
  -31.7410    2.7897  -44.3461 X   0  0  0  0  0  0  0  0  0  0  0  0
  1  2  2  0  0  0  0
  1  3  1  0  0  0  0
  1 11  1  0  0  0  0
  3  4  1  0  0  0  0
  3 10  1  0  0  0  0
  4  5  1  0  0  0  0
  5  6  1  0  0  0  0
  6  7  1  0  0  0  0
  7  8  1  0  0  0  0
  8  9  2  0  0  0  0
  8 10  1  0  0  0  0
M  END
> <Index>
9537

> <PropertyFieldDistance>
nan

$$$$
17844980
BBcorina  12272117083D 1   1.00000     0.00000 
CORINA 4.3.0 0026  30.10.2019
 12 12  0  0  0  0  0  0  0  0999 V2000
  -36.3354    2.3075  -44.8787 C   0  0  0  0  0  0  0  0  0  0  0  0
  -35.9453    3.3416  -43.9110 N   0  0  0  0  0  0  0  0  0  0  0  0
  -37.0432    4.2897  -43.6828 C   0  0  0  0  0  0  0  0  0  0  0  0
  -36.6554    5.2625  -42.5667 C   0  0  0  0  0  0  0  0  0  0  0  0
  -35.3834    6.0133  -42.9700 C   0  0  0  0  0  0  0  0  0  0  0  0
  -34.9562    6.9432  -41.8327 C   0  0  0  0  0  0  0  0  0  0  0  0
  -33.7595    7.7834  -42.2830 C   0  0  0  0  0  0  0  0  0  0  0  0
  -33.3387    8.6994  -41.1627 C   0  0  0  0  0  0  0  0  0  0  0  0
  -33.9347    8.6820  -40.1126 O   0  0  0  0  0  0  0  0  0  0  0  0
  -34.2691    5.0007  -43.2489 C   0  0  0  0  0  0  0  0  0  0  0  0
  -34.7262    4.0356  -44.3451 C   0  0  0  0  0  0  0  0  0  0  0  0
  -31.9712    9.8006  -41.3862 X   0  0  0  0  0  0  0  0  0  0  0  0
  1  2  1  0  0  0  0
  2  3  1  0  0  0  0
  2 11  1  0  0  0  0
  3  4  1  0  0  0  0
  4  5  1  0  0  0  0
  5  6  1  0  0  0  0
  5 10  1  0  0  0  0
  6  7  1  0  0  0  0
  7  8  1  0  0  0  0
  8  9  2  0  0  0  0
  8 12  1  0  0  0  0
 10 11  1  0  0  0  0
M  END
> <Index>
9561

> <PropertyFieldDistance>
nan

$$$$
12900086
BBcorina  12272117083D 1   1.00000     0.00000 
CORINA 4.3.0 0026  30.10.2019
 11 11  0  0  0  0  0  0  0  0999 V2000
  -36.3096    2.2203  -44.9596 C   0  0  0  0  0  0  0  0  0  0  0  0
  -36.0452    3.4350  -44.1845 N   0  0  0  0  0  0  0  0  0  0  0  0
  -37.0874    4.3175  -43.6470 C   0  0  0  0  0  0  0  0  0  0  0  0
  -36.3858    5.1818  -42.5759 C   0  0  0  0  0  0  0  0  0  0  0  0
  -34.9184    5.1571  -43.0626 C   0  0  0  0  0  0  0  0  0  0  0  0
  -34.6254    6.3742  -43.9422 C   0  0  0  0  0  0  0  0  0  0  0  0
  -33.1832    6.3433  -44.3784 C   0  0  0  0  0  0  0  0  0  0  0  0
  -32.4640    5.4408  -44.0226 O   0  0  0  0  0  0  0  0  0  0  0  0
  -34.8171    3.8826  -43.8714 C   0  0  0  0  0  0  0  0  0  0  0  0
  -33.7787    3.3458  -44.1947 O   0  0  0  0  0  0  0  0  0  0  0  0
  -32.5436    7.6296  -45.4125 X   0  0  0  0  0  0  0  0  0  0  0  0
  1  2  1  0  0  0  0
  2  3  1  0  0  0  0
  2  9  1  0  0  0  0
  3  4  1  0  0  0  0
  4  5  1  0  0  0  0
  5  6  1  0  0  0  0
  5  9  1  0  0  0  0
  6  7  1  0  0  0  0
  7  8  2  0  0  0  0
  7 11  1  0  0  0  0
  9 10  2  0  0  0  0
M  END
> <Index>
9597

> <PropertyFieldDistance>
nan

$$$$
11758092
BBcorina  12272117083D 1   1.00000     0.00000 
CORINA 4.3.0 0026  30.10.2019
 14 15  0  0  0  0  0  0  0  0999 V2000
  -36.3510    2.2197  -44.6625 C   0  0  0  0  0  0  0  0  0  0  0  0
  -36.0474    3.6486  -44.5075 N   0  0  0  0  0  0  0  0  0  0  0  0
  -37.0948    4.3295  -43.7244 C   0  0  0  0  0  0  0  0  0  0  0  0
  -36.4025    4.9957  -42.5168 C   0  0  0  0  0  0  0  0  0  0  0  0
  -34.9315    5.1341  -42.9899 C   0  0  0  0  0  0  0  0  0  0  0  0
  -34.7493    3.8437  -43.8272 C   0  0  0  0  0  0  0  0  0  0  0  0
  -33.6485    4.0265  -44.8400 C   0  0  0  0  0  0  0  0  0  0  0  0
  -32.5589    3.1761  -45.0302 C   0  0  0  0  0  0  0  0  0  0  0  0
  -31.8235    3.7464  -46.0605 C   0  0  0  0  0  0  0  0  0  0  0  0
  -32.4956    4.8814  -46.4243 N   0  0  0  0  0  0  0  0  0  0  0  0
  -33.5489    5.0084  -45.7003 N   0  0  0  0  0  0  0  0  0  0  0  0
  -30.5811    3.2362  -46.6407 C   0  0  0  0  0  0  0  0  0  0  0  0
  -30.0915    2.2092  -46.2189 O   0  0  0  0  0  0  0  0  0  0  0  0
  -29.7924    4.1172  -47.9577 X   0  0  0  0  0  0  0  0  0  0  0  0
  1  2  1  0  0  0  0
  2  3  1  0  0  0  0
  2  6  1  0  0  0  0
  3  4  1  0  0  0  0
  4  5  1  0  0  0  0
  5  6  1  0  0  0  0
  6  7  1  0  0  0  0
  7  8  1  0  0  0  0
  7 11  2  0  0  0  0
  8  9  2  0  0  0  0
  9 10  1  0  0  0  0
  9 12  1  0  0  0  0
 10 11  1  0  0  0  0
 12 13  2  0  0  0  0
 12 14  1  0  0  0  0
M  END
> <Index>
9714

> <PropertyFieldDistance>
nan

$$$$
7840036
BBcorina  12272117083D 1   1.00000     0.00000 
CORINA 4.3.0 0026  30.10.2019
 12 13  0  0  0  0  0  0  0  0999 V2000
  -39.8809    7.0412  -42.1966 C   0  0  0  0  0  0  0  0  0  0  0  0
  -40.1482    6.8213  -41.0397 O   0  0  0  0  0  0  0  0  0  0  0  0
  -38.6958    6.3661  -42.8376 C   0  0  0  0  0  0  0  0  0  0  0  0
  -38.0083    5.4604  -41.8121 C   0  0  0  0  0  0  0  0  0  0  0  0
  -36.6668    4.9754  -42.3753 C   0  0  0  0  0  0  0  0  0  0  0  0
  -36.9026    4.4278  -43.7607 C   0  0  0  0  0  0  0  0  0  0  0  0
  -36.0943    3.6386  -44.4874 N   0  0  0  0  0  0  0  0  0  0  0  0
  -36.7306    3.3830  -45.7113 N   0  0  0  0  0  0  0  0  0  0  0  0
  -37.8847    4.0042  -45.7120 C   0  0  0  0  0  0  0  0  0  0  0  0
  -38.0178    4.6703  -44.4958 C   0  0  0  0  0  0  0  0  0  0  0  0
  -39.1703    5.5236  -44.0280 C   0  0  0  0  0  0  0  0  0  0  0  0
  -40.8807    8.1566  -43.1394 X   0  0  0  0  0  0  0  0  0  0  0  0
  1  2  2  0  0  0  0
  1  3  1  0  0  0  0
  1 12  1  0  0  0  0
  3  4  1  0  0  0  0
  3 11  1  0  0  0  0
  4  5  1  0  0  0  0
  5  6  1  0  0  0  0
  6  7  1  0  0  0  0
  6 10  2  0  0  0  0
  7  8  1  0  0  0  0
  8  9  2  0  0  0  0
  9 10  1  0  0  0  0
 10 11  1  0  0  0  0
M  END
> <Index>
9810

> <PropertyFieldDistance>
nan

$$$$
14721080
BBcorina  12272117083D 1   1.00000     0.00000 
CORINA 4.3.0 0026  30.10.2019
 11 12  0  0  0  0  0  0  0  0999 V2000
  -37.2694    3.8758  -43.8602 C   0  0  0  0  0  0  0  0  0  0  0  0
  -37.5142    4.4190  -42.8098 O   0  0  0  0  0  0  0  0  0  0  0  0
  -36.8448    2.4300  -43.8797 C   0  0  0  0  0  0  0  0  0  0  0  0
  -35.8946    2.1972  -45.0559 C   0  0  0  0  0  0  0  0  0  0  0  0
  -34.6116    3.0171  -44.8340 C   0  0  0  0  0  0  0  0  0  0  0  0
  -35.0223    4.4392  -44.3873 C   0  0  0  0  0  0  0  0  0  0  0  0
  -35.1722    4.3827  -42.8554 C   0  0  0  0  0  0  0  0  0  0  0  0
  -34.8456    2.9289  -42.4427 C   0  0  0  0  0  0  0  0  0  0  0  0
  -33.9167    2.4258  -43.5790 C   0  0  0  0  0  0  0  0  0  0  0  0
  -36.1511    2.0882  -42.5596 C   0  0  0  0  0  0  0  0  0  0  0  0
  -37.4093    4.7776  -45.3767 X   0  0  0  0  0  0  0  0  0  0  0  0
  1  2  2  0  0  0  0
  1  3  1  0  0  0  0
  1 11  1  0  0  0  0
  3  4  1  0  0  0  0
  3 10  1  0  0  0  0
  4  5  1  0  0  0  0
  5  6  1  0  0  0  0
  5  9  1  0  0  0  0
  6  7  1  0  0  0  0
  7  8  1  0  0  0  0
  8  9  1  0  0  0  0
  8 10  1  0  0  0  0
M  END
> <Index>
9842

> <PropertyFieldDistance>
nan

$$$$
13755840
BBcorina  12272117083D 1   1.00000     0.00000 
CORINA 4.3.0 0026  30.10.2019
 11 11  0  0  0  0  0  0  0  0999 V2000
  -36.1585    2.3741  -43.9464 C   0  0  0  0  0  0  0  0  0  0  0  0
  -36.0636    3.6913  -44.5896 N   0  0  0  0  0  0  0  0  0  0  0  0
  -36.9925    4.6501  -43.9683 C   0  0  0  0  0  0  0  0  0  0  0  0
  -36.7196    4.6835  -42.4624 C   0  0  0  0  0  0  0  0  0  0  0  0
  -35.2456    4.8466  -42.2176 C   0  0  0  0  0  0  0  0  0  0  0  0
  -34.3508    4.6318  -43.1334 C   0  0  0  0  0  0  0  0  0  0  0  0
  -34.6898    4.2068  -44.5329 C   0  0  0  0  0  0  0  0  0  0  0  0
  -34.7865    5.2848  -40.8508 C   0  0  0  0  0  0  0  0  0  0  0  0
  -34.8336    6.7885  -40.7632 C   0  0  0  0  0  0  0  0  0  0  0  0
  -35.2019    7.4374  -41.7127 O   0  0  0  0  0  0  0  0  0  0  0  0
  -34.3491    7.6036  -39.2686 X   0  0  0  0  0  0  0  0  0  0  0  0
  1  2  1  0  0  0  0
  2  3  1  0  0  0  0
  2  7  1  0  0  0  0
  3  4  1  0  0  0  0
  4  5  1  0  0  0  0
  5  6  2  0  0  0  0
  5  8  1  0  0  0  0
  6  7  1  0  0  0  0
  8  9  1  0  0  0  0
  9 10  2  0  0  0  0
  9 11  1  0  0  0  0
M  END
> <Index>
9862

> <PropertyFieldDistance>
nan

$$$$
13570644
BBcorina  12272117083D 1   1.00000     0.00000 
CORINA 4.3.0 0026  30.10.2019
 12 13  0  0  0  0  0  0  0  0999 V2000
  -36.0162    2.2635  -44.6450 C   0  0  0  0  0  0  0  0  0  0  0  0
  -36.1558    3.6413  -44.1673 N   0  0  0  0  0  0  0  0  0  0  0  0
  -37.3320    4.3141  -44.0115 C   0  0  0  0  0  0  0  0  0  0  0  0
  -37.0775    5.5582  -43.5576 C   0  0  0  0  0  0  0  0  0  0  0  0
  -35.6829    5.6903  -43.4054 C   0  0  0  0  0  0  0  0  0  0  0  0
  -34.6646    6.5325  -43.0304 N   0  0  0  0  0  0  0  0  0  0  0  0
  -33.4629    5.8613  -43.1777 C   0  0  0  0  0  0  0  0  0  0  0  0
  -33.7324    4.5892  -43.6487 C   0  0  0  0  0  0  0  0  0  0  0  0
  -35.1171    4.4748  -43.7934 C   0  0  0  0  0  0  0  0  0  0  0  0
  -32.1841    6.3846  -42.8957 C   0  0  0  0  0  0  0  0  0  0  0  0
  -31.1960    5.6979  -43.0641 O   0  0  0  0  0  0  0  0  0  0  0  0
  -32.0183    8.0417  -42.2962 X   0  0  0  0  0  0  0  0  0  0  0  0
  1  2  1  0  0  0  0
  2  3  1  0  0  0  0
  2  9  1  0  0  0  0
  3  4  2  0  0  0  0
  4  5  1  0  0  0  0
  5  6  1  0  0  0  0
  5  9  2  0  0  0  0
  6  7  1  0  0  0  0
  7  8  2  0  0  0  0
  7 10  1  0  0  0  0
  8  9  1  0  0  0  0
 10 11  2  0  0  0  0
 10 12  1  0  0  0  0
M  END
> <Index>
9886

> <PropertyFieldDistance>
nan

$$$$
15352430
BBcorina  12272117083D 1   1.00000     0.00000 
CORINA 4.3.0 0026  30.10.2019
 11 12  0  0  0  0  0  0  0  0999 V2000
  -37.4858    3.4608  -44.8638 C   0  0  0  0  0  0  0  0  0  0  0  0
  -37.3844    2.8707  -45.9126 O   0  0  0  0  0  0  0  0  0  0  0  0
  -36.7766    2.9459  -43.6379 C   0  0  0  0  0  0  0  0  0  0  0  0
  -36.7719    1.4012  -43.6371 C   0  0  0  0  0  0  0  0  0  0  0  0
  -35.3852    1.0248  -43.0571 C   0  0  0  0  0  0  0  0  0  0  0  0
  -34.4524    2.1043  -43.6646 C   0  0  0  0  0  0  0  0  0  0  0  0
  -35.3077    3.3797  -43.6586 C   0  0  0  0  0  0  0  0  0  0  0  0
  -34.9436    4.4113  -44.7284 C   0  0  0  0  0  0  0  0  0  0  0  0
  -34.0097    5.0430  -43.6806 C   0  0  0  0  0  0  0  0  0  0  0  0
  -34.9168    4.4186  -42.6052 C   0  0  0  0  0  0  0  0  0  0  0  0
  -38.4676    4.9303  -44.7665 X   0  0  0  0  0  0  0  0  0  0  0  0
  1  2  2  0  0  0  0
  1  3  1  0  0  0  0
  1 11  1  0  0  0  0
  3  4  1  0  0  0  0
  3  7  1  0  0  0  0
  4  5  1  0  0  0  0
  5  6  1  0  0  0  0
  6  7  1  0  0  0  0
  7  8  1  0  0  0  0
  7 10  1  0  0  0  0
  8  9  1  0  0  0  0
  9 10  1  0  0  0  0
M  END
> <Index>
9937

> <PropertyFieldDistance>
nan

$$$$
12105992
BBcorina  12272117083D 1   1.00000     0.00000 
CORINA 4.3.0 0026  30.10.2019
 11 12  0  0  0  0  0  0  0  0999 V2000
  -36.2686    0.3699  -43.4469 C   0  0  0  0  0  0  0  0  0  0  0  0
  -35.2433   -0.2672  -43.4132 O   0  0  0  0  0  0  0  0  0  0  0  0
  -36.2196    1.8760  -43.4652 C   0  0  0  0  0  0  0  0  0  0  0  0
  -36.8923    2.3925  -44.7379 C   0  0  0  0  0  0  0  0  0  0  0  0
  -36.9131    3.9218  -44.7295 C   0  0  0  0  0  0  0  0  0  0  0  0
  -35.4758    4.4515  -44.7404 C   0  0  0  0  0  0  0  0  0  0  0  0
  -34.7232    3.8673  -43.5412 C   0  0  0  0  0  0  0  0  0  0  0  0
  -34.7285    4.6695  -42.2402 C   0  0  0  0  0  0  0  0  0  0  0  0
  -33.4532    4.5819  -43.0815 C   0  0  0  0  0  0  0  0  0  0  0  0
  -34.7601    2.3399  -43.4354 C   0  0  0  0  0  0  0  0  0  0  0  0
  -37.8289   -0.4653  -43.4749 X   0  0  0  0  0  0  0  0  0  0  0  0
  1  2  2  0  0  0  0
  1  3  1  0  0  0  0
  1 11  1  0  0  0  0
  3  4  1  0  0  0  0
  3 10  1  0  0  0  0
  4  5  1  0  0  0  0
  5  6  1  0  0  0  0
  6  7  1  0  0  0  0
  7  8  1  0  0  0  0
  7  9  1  0  0  0  0
  7 10  1  0  0  0  0
  8  9  1  0  0  0  0
M  END
> <Index>
9939

> <PropertyFieldDistance>
nan

$$$$
12360556
BBcorina  12272117083D 1   1.00000     0.00000 
CORINA 4.3.0 0026  30.10.2019
 13 14  0  0  0  0  0  0  0  0999 V2000
  -37.5149    1.9579  -44.4707 C   0  0  0  0  0  0  0  0  0  0  0  0
  -36.9027    1.0101  -44.9011 O   0  0  0  0  0  0  0  0  0  0  0  0
  -36.9541    2.7603  -43.3100 C   0  0  0  0  0  0  0  0  0  0  0  0
  -35.8494    1.9847  -42.6461 C   0  0  0  0  0  0  0  0  0  0  0  0
  -34.4437    2.5454  -42.7298 C   0  0  0  0  0  0  0  0  0  0  0  0
  -33.7331    2.0501  -43.9921 C   0  0  0  0  0  0  0  0  0  0  0  0
  -34.6049    2.6535  -45.4632 S   0  0  0  0  0  0  0  0  0  0  0  0
  -34.7117    4.4408  -45.1762 C   0  0  0  0  0  0  0  0  0  0  0  0
  -35.3277    4.7090  -43.8007 C   0  0  0  0  0  0  0  0  0  0  0  0
  -36.7499    4.1888  -43.7350 C   0  0  0  0  0  0  0  0  0  0  0  0
  -34.4852    4.0524  -42.7369 C   0  0  0  0  0  0  0  0  0  0  0  0
  -33.8723    4.7038  -41.9267 O   0  0  0  0  0  0  0  0  0  0  0  0
  -39.0658    2.4117  -45.1929 X   0  0  0  0  0  0  0  0  0  0  0  0
  1  2  2  0  0  0  0
  1  3  1  0  0  0  0
  1 13  1  0  0  0  0
  3  4  1  0  0  0  0
  3 10  1  0  0  0  0
  4  5  1  0  0  0  0
  5  6  1  0  0  0  0
  5 11  1  0  0  0  0
  6  7  1  0  0  0  0
  7  8  1  0  0  0  0
  8  9  1  0  0  0  0
  9 10  1  0  0  0  0
  9 11  1  0  0  0  0
 11 12  2  0  0  0  0
M  END
> <Index>
9945

> <PropertyFieldDistance>
nan

$$$$
12103020
BBcorina  12272117083D 1   1.00000     0.00000 
CORINA 4.3.0 0026  30.10.2019
 11 11  0  0  0  0  0  0  0  0999 V2000
  -37.7043    6.3246  -42.3919 C   0  0  0  0  0  0  0  0  0  0  0  0
  -36.6070    5.2766  -42.5892 C   0  0  0  0  0  0  0  0  0  0  0  0
  -37.0385    4.2820  -43.6702 C   0  0  0  0  0  0  0  0  0  0  0  0
  -35.9483    3.3238  -43.9093 N   0  0  0  0  0  0  0  0  0  0  0  0
  -36.3425    2.3152  -44.9018 C   0  0  0  0  0  0  0  0  0  0  0  0
  -34.7228    4.0213  -44.3252 C   0  0  0  0  0  0  0  0  0  0  0  0
  -34.3155    5.0187  -43.2373 C   0  0  0  0  0  0  0  0  0  0  0  0
  -35.3978    5.9223  -42.9968 O   0  0  0  0  0  0  0  0  0  0  0  0
  -33.1052    5.7928  -43.6920 C   0  0  0  0  0  0  0  0  0  0  0  0
  -33.1623    6.9944  -43.7993 O   0  0  0  0  0  0  0  0  0  0  0  0
  -31.6001    4.9412  -44.0688 X   0  0  0  0  0  0  0  0  0  0  0  0
  1  2  1  0  0  0  0
  2  3  1  0  0  0  0
  2  8  1  0  0  0  0
  3  4  1  0  0  0  0
  4  5  1  0  0  0  0
  4  6  1  0  0  0  0
  6  7  1  0  0  0  0
  7  8  1  0  0  0  0
  7  9  1  0  0  0  0
  9 10  2  0  0  0  0
  9 11  1  0  0  0  0
M  END
> <Index>
10014

> <PropertyFieldDistance>
nan

$$$$
14776076
BBcorina  12272117083D 1   1.00000     0.00000 
CORINA 4.3.0 0026  30.10.2019
  9  9  0  0  0  0  0  0  0  0999 V2000
  -33.2379    3.4344  -43.6912 C   0  0  0  0  0  0  0  0  0  0  0  0
  -32.8632    4.1400  -44.5968 O   0  0  0  0  0  0  0  0  0  0  0  0
  -34.6502    2.9086  -43.6806 C   0  0  0  0  0  0  0  0  0  0  0  0
  -35.4005    3.4209  -44.9165 C   0  0  0  0  0  0  0  0  0  0  0  0
  -36.7637    2.7283  -44.9768 C   0  0  0  0  0  0  0  0  0  0  0  0
  -37.4501    2.8217  -43.6456 C   0  0  0  0  0  0  0  0  0  0  0  0
  -36.8474    3.1123  -42.5375 C   0  0  0  0  0  0  0  0  0  0  0  0
  -35.3749    3.4063  -42.4281 C   0  0  0  0  0  0  0  0  0  0  0  0
  -32.1285    3.0178  -42.3765 X   0  0  0  0  0  0  0  0  0  0  0  0
  1  2  2  0  0  0  0
  1  3  1  0  0  0  0
  1  9  1  0  0  0  0
  3  4  1  0  0  0  0
  3  8  1  0  0  0  0
  4  5  1  0  0  0  0
  5  6  1  0  0  0  0
  6  7  2  0  0  0  0
  7  8  1  0  0  0  0
M  END
> <Index>
10087

> <PropertyFieldDistance>
nan

$$$$
10738608
BBcorina  12272117083D 1   1.00000     0.00000 
CORINA 4.3.0 0026  30.10.2019
 10 10  0  0  0  0  0  0  0  0999 V2000
  -34.9946    4.9557  -40.5703 C   0  0  0  0  0  0  0  0  0  0  0  0
  -35.7191    5.6655  -39.9137 O   0  0  0  0  0  0  0  0  0  0  0  0
  -35.4114    4.5212  -41.9209 C   0  0  0  0  0  0  0  0  0  0  0  0
  -34.5798    3.6896  -42.7091 C   0  0  0  0  0  0  0  0  0  0  0  0
  -34.9605    3.3157  -43.8979 N   0  0  0  0  0  0  0  0  0  0  0  0
  -36.0814    3.6684  -44.4121 N   0  0  0  0  0  0  0  0  0  0  0  0
  -36.9528    4.4571  -43.7559 C   0  0  0  0  0  0  0  0  0  0  0  0
  -38.0080    4.7774  -44.2779 O   0  0  0  0  0  0  0  0  0  0  0  0
  -36.6295    4.9163  -42.4554 C   0  0  0  0  0  0  0  0  0  0  0  0
  -33.4345    4.4359  -39.9156 X   0  0  0  0  0  0  0  0  0  0  0  0
  1  2  2  0  0  0  0
  1  3  1  0  0  0  0
  1 10  1  0  0  0  0
  3  4  1  0  0  0  0
  3  9  2  0  0  0  0
  4  5  2  0  0  0  0
  5  6  1  0  0  0  0
  6  7  1  0  0  0  0
  7  8  2  0  0  0  0
  7  9  1  0  0  0  0
M  END
> <Index>
10094

> <PropertyFieldDistance>
nan

$$$$
12398288
BBcorina  12272117083D 1   1.00000     0.00000 
CORINA 4.3.0 0026  30.10.2019
 11 11  0  0  0  0  0  0  0  0999 V2000
  -36.9617    1.7637  -45.6725 C   0  0  0  0  0  0  0  0  0  0  0  0
  -35.7080    2.3230  -45.0505 C   0  0  0  0  0  0  0  0  0  0  0  0
  -34.6409    1.7801  -45.2440 O   0  0  0  0  0  0  0  0  0  0  0  0
  -35.7728    3.4265  -44.2795 N   0  0  0  0  0  0  0  0  0  0  0  0
  -36.9978    4.1835  -43.9639 C   0  0  0  0  0  0  0  0  0  0  0  0
  -36.6824    4.9113  -42.6333 C   0  0  0  0  0  0  0  0  0  0  0  0
  -35.1880    5.2808  -42.8269 C   0  0  0  0  0  0  0  0  0  0  0  0
  -34.6332    4.0753  -43.6146 C   0  0  0  0  0  0  0  0  0  0  0  0
  -33.6407    4.5492  -44.6449 C   0  0  0  0  0  0  0  0  0  0  0  0
  -33.9776    4.6665  -45.7985 O   0  0  0  0  0  0  0  0  0  0  0  0
  -31.9812    4.9337  -44.1639 X   0  0  0  0  0  0  0  0  0  0  0  0
  1  2  1  0  0  0  0
  2  3  2  0  0  0  0
  2  4  1  0  0  0  0
  4  5  1  0  0  0  0
  4  8  1  0  0  0  0
  5  6  1  0  0  0  0
  6  7  1  0  0  0  0
  7  8  1  0  0  0  0
  8  9  1  0  0  0  0
  9 10  2  0  0  0  0
  9 11  1  0  0  0  0
M  END
> <Index>
10132

> <PropertyFieldDistance>
nan

$$$$
14320112
BBcorina  12272117083D 1   1.00000     0.00000 
CORINA 4.3.0 0026  30.10.2019
 12 13  0  0  0  0  0  0  0  0999 V2000
  -33.9711    2.2679  -43.8168 C   0  0  0  0  0  0  0  0  0  0  0  0
  -34.2735    1.2502  -43.2414 O   0  0  0  0  0  0  0  0  0  0  0  0
  -34.7666    2.7216  -45.0137 C   0  0  0  0  0  0  0  0  0  0  0  0
  -36.1675    2.1146  -44.9540 C   0  0  0  0  0  0  0  0  0  0  0  0
  -36.9249    2.6082  -43.7312 C   0  0  0  0  0  0  0  0  0  0  0  0
  -36.3135    2.0878  -42.4376 C   0  0  0  0  0  0  0  0  0  0  0  0
  -35.1208    2.8987  -42.0313 C   0  0  0  0  0  0  0  0  0  0  0  0
  -34.7836    4.0295  -42.5611 C   0  0  0  0  0  0  0  0  0  0  0  0
  -35.5444    4.6732  -43.6905 C   0  0  0  0  0  0  0  0  0  0  0  0
  -34.8716    4.2504  -45.0075 C   0  0  0  0  0  0  0  0  0  0  0  0
  -36.9808    4.1362  -43.6998 C   0  0  0  0  0  0  0  0  0  0  0  0
  -32.5937    3.2268  -43.2545 X   0  0  0  0  0  0  0  0  0  0  0  0
  1  2  2  0  0  0  0
  1  3  1  0  0  0  0
  1 12  1  0  0  0  0
  3  4  1  0  0  0  0
  3 10  1  0  0  0  0
  4  5  1  0  0  0  0
  5  6  1  0  0  0  0
  5 11  1  0  0  0  0
  6  7  1  0  0  0  0
  7  8  2  0  0  0  0
  8  9  1  0  0  0  0
  9 10  1  0  0  0  0
  9 11  1  0  0  0  0
M  END
> <Index>
10147

> <PropertyFieldDistance>
nan

$$$$
10119106
BBcorina  12272117083D 1   1.00000     0.00000 
CORINA 4.3.0 0026  30.10.2019
 13 14  0  0  0  0  0  0  0  0999 V2000
  -36.4783    1.0803  -44.4546 C   0  0  0  0  0  0  0  0  0  0  0  0
  -37.1887    1.2809  -43.4989 O   0  0  0  0  0  0  0  0  0  0  0  0
  -35.0645    1.6020  -44.4653 C   0  0  0  0  0  0  0  0  0  0  0  0
  -34.2881    0.9949  -43.2950 C   0  0  0  0  0  0  0  0  0  0  0  0
  -34.9646    1.3822  -41.9785 C   0  0  0  0  0  0  0  0  0  0  0  0
  -34.9822    2.9061  -41.8432 C   0  0  0  0  0  0  0  0  0  0  0  0
  -35.7586    3.5131  -43.0134 C   0  0  0  0  0  0  0  0  0  0  0  0
  -35.7762    5.0370  -42.8781 C   0  0  0  0  0  0  0  0  0  0  0  0
  -36.5527    5.6441  -44.0483 C   0  0  0  0  0  0  0  0  0  0  0  0
  -35.8761    5.2568  -45.3649 C   0  0  0  0  0  0  0  0  0  0  0  0
  -35.8585    3.7329  -45.5002 C   0  0  0  0  0  0  0  0  0  0  0  0
  -35.0821    3.1258  -44.3299 C   0  0  0  0  0  0  0  0  0  0  0  0
  -37.0976    0.1737  -45.8429 X   0  0  0  0  0  0  0  0  0  0  0  0
  1  2  2  0  0  0  0
  1  3  1  0  0  0  0
  1 13  1  0  0  0  0
  3  4  1  0  0  0  0
  3 12  1  0  0  0  0
  4  5  1  0  0  0  0
  5  6  1  0  0  0  0
  6  7  1  0  0  0  0
  7  8  1  0  0  0  0
  7 12  1  0  0  0  0
  8  9  1  0  0  0  0
  9 10  1  0  0  0  0
 10 11  1  0  0  0  0
 11 12  1  0  0  0  0
M  END
> <Index>
10173

> <PropertyFieldDistance>
nan

$$$$
16784408
BBcorina  12272117083D 1   1.00000     0.00000 
CORINA 4.3.0 0026  30.10.2019
 11 11  0  0  0  0  0  0  0  0999 V2000
  -35.7462   -0.4181  -44.5647 C   0  0  0  0  0  0  0  0  0  0  0  0
  -36.6869   -0.0611  -43.8866 O   0  0  0  0  0  0  0  0  0  0  0  0
  -35.2914    0.4123  -45.6795 C   0  0  0  0  0  0  0  0  0  0  0  0
  -35.7704    1.6490  -45.8292 C   0  0  0  0  0  0  0  0  0  0  0  0
  -36.5934    2.2760  -44.7334 C   0  0  0  0  0  0  0  0  0  0  0  0
  -36.1778    3.6726  -44.5470 N   0  0  0  0  0  0  0  0  0  0  0  0
  -37.1109    4.3873  -43.6569 C   0  0  0  0  0  0  0  0  0  0  0  0
  -36.2825    4.9500  -42.4829 C   0  0  0  0  0  0  0  0  0  0  0  0
  -34.8460    5.0094  -43.0657 C   0  0  0  0  0  0  0  0  0  0  0  0
  -34.8209    3.7484  -43.9650 C   0  0  0  0  0  0  0  0  0  0  0  0
  -34.9198   -1.9402  -44.2003 X   0  0  0  0  0  0  0  0  0  0  0  0
  1  2  2  0  0  0  0
  1  3  1  0  0  0  0
  1 11  1  0  0  0  0
  3  4  2  0  0  0  0
  4  5  1  0  0  0  0
  5  6  1  0  0  0  0
  6  7  1  0  0  0  0
  6 10  1  0  0  0  0
  7  8  1  0  0  0  0
  8  9  1  0  0  0  0
  9 10  1  0  0  0  0
M  END
> <Index>
10225

> <PropertyFieldDistance>
nan

$$$$
7593576
BBcorina  12272117083D 1   1.00000     0.00000 
CORINA 4.3.0 0026  30.10.2019
 12 12  0  0  0  0  0  0  0  0999 V2000
  -36.5657    0.6763  -46.7167 C   0  0  0  0  0  0  0  0  0  0  0  0
  -36.9449    1.7958  -45.7452 C   0  0  0  0  0  0  0  0  0  0  0  0
  -35.6958    2.3686  -45.1265 C   0  0  0  0  0  0  0  0  0  0  0  0
  -34.6093    1.9251  -45.4325 O   0  0  0  0  0  0  0  0  0  0  0  0
  -35.7861    3.3737  -44.2332 N   0  0  0  0  0  0  0  0  0  0  0  0
  -37.0332    4.0032  -43.7748 C   0  0  0  0  0  0  0  0  0  0  0  0
  -36.6452    5.1176  -42.7803 C   0  0  0  0  0  0  0  0  0  0  0  0
  -35.1744    5.4291  -43.1638 C   0  0  0  0  0  0  0  0  0  0  0  0
  -34.6508    4.0244  -43.5543 C   0  0  0  0  0  0  0  0  0  0  0  0
  -34.4141    5.9805  -41.9853 C   0  0  0  0  0  0  0  0  0  0  0  0
  -33.5282    5.3327  -41.4815 O   0  0  0  0  0  0  0  0  0  0  0  0
  -34.8196    7.5779  -41.3395 X   0  0  0  0  0  0  0  0  0  0  0  0
  1  2  1  0  0  0  0
  2  3  1  0  0  0  0
  3  4  2  0  0  0  0
  3  5  1  0  0  0  0
  5  6  1  0  0  0  0
  5  9  1  0  0  0  0
  6  7  1  0  0  0  0
  7  8  1  0  0  0  0
  8  9  1  0  0  0  0
  8 10  1  0  0  0  0
 10 11  2  0  0  0  0
 10 12  1  0  0  0  0
M  END
> <Index>
10275

> <PropertyFieldDistance>
nan

$$$$
8845334
BBcorina  12272117083D 1   1.00000     0.00000 
CORINA 4.3.0 0026  30.10.2019
 12 12  0  0  0  0  0  0  0  0999 V2000
  -34.8963    7.1777  -42.6360 C   0  0  0  0  0  0  0  0  0  0  0  0
  -35.1942    5.6784  -42.6991 C   0  0  0  0  0  0  0  0  0  0  0  0
  -36.6850    5.4657  -42.9714 C   0  0  0  0  0  0  0  0  0  0  0  0
  -36.9857    3.9638  -42.9999 C   0  0  0  0  0  0  0  0  0  0  0  0
  -36.0962    3.3219  -43.9774 N   0  0  0  0  0  0  0  0  0  0  0  0
  -34.6469    3.5313  -43.8579 C   0  0  0  0  0  0  0  0  0  0  0  0
  -34.3729    5.0425  -43.8231 C   0  0  0  0  0  0  0  0  0  0  0  0
  -36.5999    2.5511  -44.9617 C   0  0  0  0  0  0  0  0  0  0  0  0
  -37.7869    2.2998  -44.9883 O   0  0  0  0  0  0  0  0  0  0  0  0
  -35.6988    2.0073  -46.0176 C   0  0  0  0  0  0  0  0  0  0  0  0
  -34.5404    2.3473  -46.0569 O   0  0  0  0  0  0  0  0  0  0  0  0
  -36.3265    0.8635  -47.2136 X   0  0  0  0  0  0  0  0  0  0  0  0
  1  2  1  0  0  0  0
  2  3  1  0  0  0  0
  2  7  1  0  0  0  0
  3  4  1  0  0  0  0
  4  5  1  0  0  0  0
  5  6  1  0  0  0  0
  5  8  1  0  0  0  0
  6  7  1  0  0  0  0
  8  9  2  0  0  0  0
  8 10  1  0  0  0  0
 10 11  2  0  0  0  0
 10 12  1  0  0  0  0
M  END
> <Index>
10287

> <PropertyFieldDistance>
nan

$$$$
8845336
BBcorina  12272117083D 1   1.00000     0.00000 
CORINA 4.3.0 0026  30.10.2019
 12 12  0  0  0  0  0  0  0  0999 V2000
  -33.1163    5.7299  -42.7415 C   0  0  0  0  0  0  0  0  0  0  0  0
  -34.3428    4.8286  -42.8983 C   0  0  0  0  0  0  0  0  0  0  0  0
  -35.5959    5.5907  -42.4610 C   0  0  0  0  0  0  0  0  0  0  0  0
  -36.8190    4.6794  -42.5865 C   0  0  0  0  0  0  0  0  0  0  0  0
  -36.9925    4.2630  -44.0505 C   0  0  0  0  0  0  0  0  0  0  0  0
  -35.7376    3.6571  -44.5248 N   0  0  0  0  0  0  0  0  0  0  0  0
  -34.4883    4.4140  -44.3659 C   0  0  0  0  0  0  0  0  0  0  0  0
  -35.7320    2.4336  -45.0901 C   0  0  0  0  0  0  0  0  0  0  0  0
  -34.7165    2.0040  -45.5971 O   0  0  0  0  0  0  0  0  0  0  0  0
  -36.9734    1.6081  -45.0928 C   0  0  0  0  0  0  0  0  0  0  0  0
  -37.9523    1.9875  -44.4955 O   0  0  0  0  0  0  0  0  0  0  0  0
  -37.0128    0.0719  -45.9711 X   0  0  0  0  0  0  0  0  0  0  0  0
  1  2  1  0  0  0  0
  2  3  1  0  0  0  0
  2  7  1  0  0  0  0
  3  4  1  0  0  0  0
  4  5  1  0  0  0  0
  5  6  1  0  0  0  0
  6  7  1  0  0  0  0
  6  8  1  0  0  0  0
  8  9  2  0  0  0  0
  8 10  1  0  0  0  0
 10 11  2  0  0  0  0
 10 12  1  0  0  0  0
M  END
> <Index>
10288

> <PropertyFieldDistance>
nan

$$$$
16712294
BBcorina  12272117083D 1   1.00000     0.00000 
CORINA 4.3.0 0026  30.10.2019
 12 12  0  0  0  0  0  0  0  0999 V2000
  -36.6791    1.3022  -46.9106 C   0  0  0  0  0  0  0  0  0  0  0  0
  -36.7202    0.1910  -46.4393 O   0  0  0  0  0  0  0  0  0  0  0  0
  -36.3735    2.4844  -46.0274 C   0  0  0  0  0  0  0  0  0  0  0  0
  -36.1579    2.0053  -44.5905 C   0  0  0  0  0  0  0  0  0  0  0  0
  -35.8600    3.1577  -43.7295 N   0  0  0  0  0  0  0  0  0  0  0  0
  -36.9344    4.1611  -43.8010 C   0  0  0  0  0  0  0  0  0  0  0  0
  -36.7344    5.1757  -42.6735 C   0  0  0  0  0  0  0  0  0  0  0  0
  -35.3591    5.6662  -42.6799 N   0  0  0  0  0  0  0  0  0  0  0  0
  -34.3633    5.0295  -43.3051 C   0  0  0  0  0  0  0  0  0  0  0  0
  -33.2439    5.4906  -43.2340 O   0  0  0  0  0  0  0  0  0  0  0  0
  -34.5731    3.7667  -44.0917 C   0  0  0  0  0  0  0  0  0  0  0  0
  -36.9777    1.5421  -48.6387 X   0  0  0  0  0  0  0  0  0  0  0  0
  1  2  2  0  0  0  0
  1  3  1  0  0  0  0
  1 12  1  0  0  0  0
  3  4  1  0  0  0  0
  4  5  1  0  0  0  0
  5  6  1  0  0  0  0
  5 11  1  0  0  0  0
  6  7  1  0  0  0  0
  7  8  1  0  0  0  0
  8  9  1  0  0  0  0
  9 10  2  0  0  0  0
  9 11  1  0  0  0  0
M  END
> <Index>
10289

> <PropertyFieldDistance>
nan

$$$$
8929594
BBcorina  12272117083D 1   1.00000     0.00000 
CORINA 4.3.0 0026  30.10.2019
 10 10  0  0  0  0  0  0  0  0999 V2000
  -36.3141    2.3490  -45.1235 C   0  0  0  0  0  0  0  0  0  0  0  0
  -36.0438    3.3945  -44.1336 N   0  0  0  0  0  0  0  0  0  0  0  0
  -37.0792    4.0930  -43.3629 C   0  0  0  0  0  0  0  0  0  0  0  0
  -36.3926    5.3630  -42.8037 C   0  0  0  0  0  0  0  0  0  0  0  0
  -34.9102    4.9244  -42.7665 C   0  0  0  0  0  0  0  0  0  0  0  0
  -34.8155    3.8377  -43.8147 C   0  0  0  0  0  0  0  0  0  0  0  0
  -33.7815    3.4257  -44.2965 O   0  0  0  0  0  0  0  0  0  0  0  0
  -37.5666    3.2212  -42.2345 C   0  0  0  0  0  0  0  0  0  0  0  0
  -37.1189    2.1084  -42.0944 O   0  0  0  0  0  0  0  0  0  0  0  0
  -38.7950    3.8284  -41.1141 X   0  0  0  0  0  0  0  0  0  0  0  0
  1  2  1  0  0  0  0
  2  3  1  0  0  0  0
  2  6  1  0  0  0  0
  3  4  1  0  0  0  0
  3  8  1  0  0  0  0
  4  5  1  0  0  0  0
  5  6  1  0  0  0  0
  6  7  2  0  0  0  0
  8  9  2  0  0  0  0
  8 10  1  0  0  0  0
M  END
> <Index>
10297

> <PropertyFieldDistance>
nan

$$$$
6361458
BBcorina  12272117083D 1   1.00000     0.00000 
CORINA 4.3.0 0026  30.10.2019
  8  8  0  0  0  0  0  0  0  0999 V2000
  -35.9768    2.0417  -45.6759 C   0  0  0  0  0  0  0  0  0  0  0  0
  -35.7515    1.9470  -46.8586 O   0  0  0  0  0  0  0  0  0  0  0  0
  -35.4274    3.2077  -44.8952 C   0  0  0  0  0  0  0  0  0  0  0  0
  -34.7129    2.7128  -43.6275 C   0  0  0  0  0  0  0  0  0  0  0  0
  -35.3996    3.1916  -42.3475 C   0  0  0  0  0  0  0  0  0  0  0  0
  -36.0750    4.5603  -42.6176 C   0  0  0  0  0  0  0  0  0  0  0  0
  -36.7944    4.2674  -44.2854 S   0  0  0  0  0  0  0  0  0  0  0  0
  -36.9523    0.8109  -44.8595 X   0  0  0  0  0  0  0  0  0  0  0  0
  1  2  2  0  0  0  0
  1  3  1  0  0  0  0
  1  8  1  0  0  0  0
  3  4  1  0  0  0  0
  3  7  1  0  0  0  0
  4  5  1  0  0  0  0
  5  6  1  0  0  0  0
  6  7  1  0  0  0  0
M  END
> <Index>
10328

> <PropertyFieldDistance>
nan

$$$$
11763668
BBcorina  12272117083D 1   1.00000     0.00000 
CORINA 4.3.0 0026  30.10.2019
 12 12  0  0  0  0  0  0  0  0999 V2000
  -33.9370    4.6614  -47.2225 C   0  0  0  0  0  0  0  0  0  0  0  0
  -33.2276    3.7424  -47.5548 O   0  0  0  0  0  0  0  0  0  0  0  0
  -34.8056    4.5380  -45.9972 C   0  0  0  0  0  0  0  0  0  0  0  0
  -34.6012    3.1604  -45.3638 C   0  0  0  0  0  0  0  0  0  0  0  0
  -35.4831    3.0351  -44.1198 C   0  0  0  0  0  0  0  0  0  0  0  0
  -35.0533    4.1018  -43.0946 C   0  0  0  0  0  0  0  0  0  0  0  0
  -35.5621    3.8021  -41.6716 C   0  0  0  0  0  0  0  0  0  0  0  0
  -36.9822    3.3048  -41.6607 C   0  0  0  0  0  0  0  0  0  0  0  0
  -36.9613    1.7625  -41.6692 C   0  0  0  0  0  0  0  0  0  0  0  0
  -36.7326    1.2181  -42.9994 C   0  0  0  0  0  0  0  0  0  0  0  0
  -35.3655    1.6360  -43.5786 C   0  0  0  0  0  0  0  0  0  0  0  0
  -33.9565    6.1534  -48.1745 X   0  0  0  0  0  0  0  0  0  0  0  0
  1  2  2  0  0  0  0
  1  3  1  0  0  0  0
  1 12  1  0  0  0  0
  3  4  1  0  0  0  0
  4  5  1  0  0  0  0
  5  6  1  0  0  0  0
  5 11  1  0  0  0  0
  6  7  1  0  0  0  0
  7  8  1  0  0  0  0
  8  9  1  0  0  0  0
  9 10  1  0  0  0  0
 10 11  1  0  0  0  0
M  END
> <Index>
10332

> <PropertyFieldDistance>
nan

$$$$
12103028
BBcorina  12272117083D 1   1.00000     0.00000 
CORINA 4.3.0 0026  30.10.2019
 11 11  0  0  0  0  0  0  0  0999 V2000
  -36.3235    2.2515  -44.8151 C   0  0  0  0  0  0  0  0  0  0  0  0
  -36.0634    3.6522  -44.4568 N   0  0  0  0  0  0  0  0  0  0  0  0
  -37.1160    4.1738  -43.5592 C   0  0  0  0  0  0  0  0  0  0  0  0
  -36.3825    5.1681  -42.6251 C   0  0  0  0  0  0  0  0  0  0  0  0
  -35.0220    4.4533  -42.4129 C   0  0  0  0  0  0  0  0  0  0  0  0
  -34.7597    3.7917  -43.7822 C   0  0  0  0  0  0  0  0  0  0  0  0
  -34.1274    2.4129  -43.5815 C   0  0  0  0  0  0  0  0  0  0  0  0
  -32.7363    2.5746  -42.9655 C   0  0  0  0  0  0  0  0  0  0  0  0
  -32.0720    1.2258  -42.8639 C   0  0  0  0  0  0  0  0  0  0  0  0
  -32.6513    0.2371  -43.2450 O   0  0  0  0  0  0  0  0  0  0  0  0
  -30.4424    1.0907  -42.1862 X   0  0  0  0  0  0  0  0  0  0  0  0
  1  2  1  0  0  0  0
  2  3  1  0  0  0  0
  2  6  1  0  0  0  0
  3  4  1  0  0  0  0
  4  5  1  0  0  0  0
  5  6  1  0  0  0  0
  6  7  1  0  0  0  0
  7  8  1  0  0  0  0
  8  9  1  0  0  0  0
  9 10  2  0  0  0  0
  9 11  1  0  0  0  0
M  END
> <Index>
10342

> <PropertyFieldDistance>
nan

$$$$
14243922
BBcorina  12272117083D 1   1.00000     0.00000 
CORINA 4.3.0 0026  30.10.2019
  9  9  0  0  0  0  0  0  0  0999 V2000
  -36.4187    2.1597  -44.7040 C   0  0  0  0  0  0  0  0  0  0  0  0
  -36.0195    3.4870  -44.2297 N   0  0  0  0  0  0  0  0  0  0  0  0
  -36.8472    4.4935  -43.8683 C   0  0  0  0  0  0  0  0  0  0  0  0
  -36.0669    5.5409  -43.4952 C   0  0  0  0  0  0  0  0  0  0  0  0
  -34.7941    5.1829  -43.6255 N   0  0  0  0  0  0  0  0  0  0  0  0
  -34.7385    3.9421  -44.0693 C   0  0  0  0  0  0  0  0  0  0  0  0
  -33.5160    3.1836  -44.3486 C   0  0  0  0  0  0  0  0  0  0  0  0
  -33.5895    2.0431  -44.7561 O   0  0  0  0  0  0  0  0  0  0  0  0
  -31.9324    3.9311  -44.0913 X   0  0  0  0  0  0  0  0  0  0  0  0
  1  2  1  0  0  0  0
  2  3  1  0  0  0  0
  2  6  1  0  0  0  0
  3  4  2  0  0  0  0
  4  5  1  0  0  0  0
  5  6  2  0  0  0  0
  6  7  1  0  0  0  0
  7  8  2  0  0  0  0
  7  9  1  0  0  0  0
M  END
> <Index>
10392

> <PropertyFieldDistance>
nan

$$$$
10809110
BBcorina  12272117083D 1   1.00000     0.00000 
CORINA 4.3.0 0026  30.10.2019
 11 11  0  0  0  0  0  0  0  0999 V2000
  -39.4296    1.2712  -44.0284 C   0  0  0  0  0  0  0  0  0  0  0  0
  -39.4751    0.9785  -42.8577 O   0  0  0  0  0  0  0  0  0  0  0  0
  -38.5974    2.4434  -44.4805 C   0  0  0  0  0  0  0  0  0  0  0  0
  -37.9185    3.0843  -43.2683 C   0  0  0  0  0  0  0  0  0  0  0  0
  -37.0736    4.2745  -43.7271 C   0  0  0  0  0  0  0  0  0  0  0  0
  -36.4294    4.9757  -42.5107 C   0  0  0  0  0  0  0  0  0  0  0  0
  -35.0503    4.2801  -42.4396 C   0  0  0  0  0  0  0  0  0  0  0  0
  -34.8035    3.8004  -43.8530 C   0  0  0  0  0  0  0  0  0  0  0  0
  -33.7267    3.4546  -44.2911 O   0  0  0  0  0  0  0  0  0  0  0  0
  -35.9513    3.8125  -44.5523 N   0  0  0  0  0  0  0  0  0  0  0  0
  -40.3404    0.3232  -45.2136 X   0  0  0  0  0  0  0  0  0  0  0  0
  1  2  2  0  0  0  0
  1  3  1  0  0  0  0
  1 11  1  0  0  0  0
  3  4  1  0  0  0  0
  4  5  1  0  0  0  0
  5  6  1  0  0  0  0
  5 10  1  0  0  0  0
  6  7  1  0  0  0  0
  7  8  1  0  0  0  0
  8  9  2  0  0  0  0
  8 10  1  0  0  0  0
M  END
> <Index>
10400

> <PropertyFieldDistance>
nan

$$$$
13217458
BBcorina  12272117083D 1   1.00000     0.00000 
CORINA 4.3.0 0026  30.10.2019
 12 12  0  0  0  0  0  0  0  0999 V2000
  -36.3568    2.2510  -44.7133 C   0  0  0  0  0  0  0  0  0  0  0  0
  -35.9946    3.5670  -44.1809 N   0  0  0  0  0  0  0  0  0  0  0  0
  -36.9748    4.4524  -43.8687 C   0  0  0  0  0  0  0  0  0  0  0  0
  -36.6772    5.6766  -43.3740 C   0  0  0  0  0  0  0  0  0  0  0  0
  -38.0640    6.8895  -42.9480 Br  0  0  0  0  0  0  0  0  0  0  0  0
  -35.3269    6.0463  -43.1770 C   0  0  0  0  0  0  0  0  0  0  0  0
  -34.3310    5.1382  -43.4980 C   0  0  0  0  0  0  0  0  0  0  0  0
  -34.6962    3.8742  -44.0050 C   0  0  0  0  0  0  0  0  0  0  0  0
  -33.8336    3.0593  -44.2884 O   0  0  0  0  0  0  0  0  0  0  0  0
  -34.9834    7.3793  -42.6370 C   0  0  0  0  0  0  0  0  0  0  0  0
  -35.8513    8.2005  -42.4580 O   0  0  0  0  0  0  0  0  0  0  0  0
  -33.3008    7.7719  -42.2528 X   0  0  0  0  0  0  0  0  0  0  0  0
  1  2  1  0  0  0  0
  2  3  1  0  0  0  0
  2  8  1  0  0  0  0
  3  4  2  0  0  0  0
  4  5  1  0  0  0  0
  4  6  1  0  0  0  0
  6  7  2  0  0  0  0
  6 10  1  0  0  0  0
  7  8  1  0  0  0  0
  8  9  2  0  0  0  0
 10 11  2  0  0  0  0
 10 12  1  0  0  0  0
M  END
> <Index>
10422

> <PropertyFieldDistance>
nan

$$$$
11945938
BBcorina  12272117083D 1   1.00000     0.00000 
CORINA 4.3.0 0026  30.10.2019
 14 15  0  0  0  0  0  0  0  0999 V2000
  -36.2495    2.2758  -44.7956 C   0  0  0  0  0  0  0  0  0  0  0  0
  -36.0804    3.6762  -44.3853 N   0  0  0  0  0  0  0  0  0  0  0  0
  -36.9225    3.9898  -43.2291 C   0  0  0  0  0  0  0  0  0  0  0  0
  -36.6856    5.4521  -42.8319 C   0  0  0  0  0  0  0  0  0  0  0  0
  -35.2616    5.5668  -42.2828 C   0  0  0  0  0  0  0  0  0  0  0  0
  -34.8819    7.0211  -42.1734 C   0  0  0  0  0  0  0  0  0  0  0  0
  -34.4644    7.6105  -43.1410 O   0  0  0  0  0  0  0  0  0  0  0  0
  -34.3018    4.8660  -43.2110 C   0  0  0  0  0  0  0  0  0  0  0  0
  -32.9487    5.1311  -43.0734 C   0  0  0  0  0  0  0  0  0  0  0  0
  -32.0264    4.5118  -43.8938 C   0  0  0  0  0  0  0  0  0  0  0  0
  -32.4532    3.6199  -44.8603 C   0  0  0  0  0  0  0  0  0  0  0  0
  -33.7979    3.3531  -45.0047 C   0  0  0  0  0  0  0  0  0  0  0  0
  -34.7349    3.9778  -44.1802 C   0  0  0  0  0  0  0  0  0  0  0  0
  -35.0480    7.8651  -40.6265 X   0  0  0  0  0  0  0  0  0  0  0  0
  1  2  1  0  0  0  0
  2  3  1  0  0  0  0
  2 13  1  0  0  0  0
  3  4  1  0  0  0  0
  4  5  1  0  0  0  0
  5  6  1  0  0  0  0
  5  8  1  0  0  0  0
  6  7  2  0  0  0  0
  6 14  1  0  0  0  0
  8  9  2  0  0  0  0
  8 13  1  0  0  0  0
  9 10  1  0  0  0  0
 10 11  2  0  0  0  0
 11 12  1  0  0  0  0
 12 13  2  0  0  0  0
M  END
> <Index>
10425

> <PropertyFieldDistance>
nan

$$$$
17310290
BBcorina  12272117083D 1   1.00000     0.00000 
CORINA 4.3.0 0026  30.10.2019
 14 15  0  0  0  0  0  0  0  0999 V2000
  -36.3496    2.3568  -44.9462 C   0  0  0  0  0  0  0  0  0  0  0  0
  -36.0374    3.6630  -44.3509 N   0  0  0  0  0  0  0  0  0  0  0  0
  -36.9514    3.9681  -43.2427 C   0  0  0  0  0  0  0  0  0  0  0  0
  -36.6926    5.3915  -42.7434 C   0  0  0  0  0  0  0  0  0  0  0  0
  -35.2387    5.5070  -42.2771 C   0  0  0  0  0  0  0  0  0  0  0  0
  -34.3073    5.1368  -43.4348 C   0  0  0  0  0  0  0  0  0  0  0  0
  -34.6364    3.7214  -43.9151 C   0  0  0  0  0  0  0  0  0  0  0  0
  -34.9681    6.8867  -41.8513 N   0  0  0  0  0  0  0  0  0  0  0  0
  -35.6980    7.2099  -40.6113 C   0  0  0  0  0  0  0  0  0  0  0  0
  -34.4367    7.9365  -40.1239 C   0  0  0  0  0  0  0  0  0  0  0  0
  -33.7195    6.9632  -41.0700 C   0  0  0  0  0  0  0  0  0  0  0  0
  -34.3546    9.3808  -40.5463 C   0  0  0  0  0  0  0  0  0  0  0  0
  -35.2381    9.8667  -41.2109 O   0  0  0  0  0  0  0  0  0  0  0  0
  -32.9633   10.3650  -40.0681 X   0  0  0  0  0  0  0  0  0  0  0  0
  1  2  1  0  0  0  0
  2  3  1  0  0  0  0
  2  7  1  0  0  0  0
  3  4  1  0  0  0  0
  4  5  1  0  0  0  0
  5  6  1  0  0  0  0
  5  8  1  0  0  0  0
  6  7  1  0  0  0  0
  8  9  1  0  0  0  0
  8 11  1  0  0  0  0
  9 10  1  0  0  0  0
 10 11  1  0  0  0  0
 10 12  1  0  0  0  0
 12 13  2  0  0  0  0
 12 14  1  0  0  0  0
M  END
> <Index>
10461

> <PropertyFieldDistance>
nan

$$$$
13573666
BBcorina  12272117083D 1   1.00000     0.00000 
CORINA 4.3.0 0026  30.10.2019
 11 11  0  0  0  0  0  0  0  0999 V2000
  -34.6648    0.3258  -43.6566 C   0  0  0  0  0  0  0  0  0  0  0  0
  -35.3805    0.3373  -44.6291 O   0  0  0  0  0  0  0  0  0  0  0  0
  -34.3567    1.6111  -42.9325 C   0  0  0  0  0  0  0  0  0  0  0  0
  -35.0693    2.7722  -43.6288 C   0  0  0  0  0  0  0  0  0  0  0  0
  -34.5821    4.0973  -43.0101 C   0  0  0  0  0  0  0  0  0  0  0  0
  -35.5346    5.2568  -43.3321 C   0  0  0  0  0  0  0  0  0  0  0  0
  -36.0224    5.1858  -44.7602 C   0  0  0  0  0  0  0  0  0  0  0  0
  -37.2787    4.4946  -44.7519 O   0  0  0  0  0  0  0  0  0  0  0  0
  -37.2602    3.1315  -44.7594 C   0  0  0  0  0  0  0  0  0  0  0  0
  -36.5607    2.5778  -43.4965 C   0  0  0  0  0  0  0  0  0  0  0  0
  -33.9776   -1.2006  -43.0815 X   0  0  0  0  0  0  0  0  0  0  0  0
  1  2  2  0  0  0  0
  1  3  1  0  0  0  0
  1 11  1  0  0  0  0
  3  4  1  0  0  0  0
  4  5  1  0  0  0  0
  4 10  1  0  0  0  0
  5  6  1  0  0  0  0
  6  7  1  0  0  0  0
  7  8  1  0  0  0  0
  8  9  1  0  0  0  0
  9 10  1  0  0  0  0
M  END
> <Index>
10462

> <PropertyFieldDistance>
nan

$$$$
9437450
BBcorina  12272117083D 1   1.00000     0.00000 
CORINA 4.3.0 0026  30.10.2019
 10 10  0  0  0  0  0  0  0  0999 V2000
  -35.2134    1.6331  -41.7675 C   0  0  0  0  0  0  0  0  0  0  0  0
  -34.4146    0.7437  -41.9387 O   0  0  0  0  0  0  0  0  0  0  0  0
  -35.6727    2.4683  -42.9347 C   0  0  0  0  0  0  0  0  0  0  0  0
  -34.9757    1.9833  -44.2219 C   0  0  0  0  0  0  0  0  0  0  0  0
  -35.6601    2.4564  -45.4251 C   0  0  0  0  0  0  0  0  0  0  0  0
  -35.6788    3.9947  -45.5176 C   0  0  0  0  0  0  0  0  0  0  0  0
  -36.6952    4.4835  -44.6827 O   0  0  0  0  0  0  0  0  0  0  0  0
  -36.3031    4.8824  -43.3559 C   0  0  0  0  0  0  0  0  0  0  0  0
  -35.3110    3.9111  -42.6938 C   0  0  0  0  0  0  0  0  0  0  0  0
  -35.8447    1.9556  -40.1457 X   0  0  0  0  0  0  0  0  0  0  0  0
  1  2  2  0  0  0  0
  1  3  1  0  0  0  0
  1 10  1  0  0  0  0
  3  4  1  0  0  0  0
  3  9  1  0  0  0  0
  4  5  1  0  0  0  0
  5  6  1  0  0  0  0
  6  7  1  0  0  0  0
  7  8  1  0  0  0  0
  8  9  1  0  0  0  0
M  END
> <Index>
10463

> <PropertyFieldDistance>
nan

$$$$
15612042
BBcorina  12272117083D 1   1.00000     0.00000 
CORINA 4.3.0 0026  30.10.2019
 11 11  0  0  0  0  0  0  0  0999 V2000
  -36.7192    0.4738  -43.6949 C   0  0  0  0  0  0  0  0  0  0  0  0
  -36.1265    1.8750  -43.5324 C   0  0  0  0  0  0  0  0  0  0  0  0
  -34.6718    1.8335  -43.9152 C   0  0  0  0  0  0  0  0  0  0  0  0
  -33.8989    2.8142  -43.0098 C   0  0  0  0  0  0  0  0  0  0  0  0
  -34.0234    4.1947  -43.4487 C   0  0  0  0  0  0  0  0  0  0  0  0
  -35.4829    4.6929  -43.4223 C   0  0  0  0  0  0  0  0  0  0  0  0
  -36.1881    4.1846  -44.6505 C   0  0  0  0  0  0  0  0  0  0  0  0
  -36.9354    2.8616  -44.3961 C   0  0  0  0  0  0  0  0  0  0  0  0
  -35.5034    6.1998  -43.4140 C   0  0  0  0  0  0  0  0  0  0  0  0
  -34.4659    6.8177  -43.4206 O   0  0  0  0  0  0  0  0  0  0  0  0
  -37.0481    7.0638  -43.4020 X   0  0  0  0  0  0  0  0  0  0  0  0
  1  2  1  0  0  0  0
  2  3  1  0  0  0  0
  2  8  1  0  0  0  0
  3  4  1  0  0  0  0
  4  5  1  0  0  0  0
  5  6  1  0  0  0  0
  6  7  1  0  0  0  0
  6  9  1  0  0  0  0
  7  8  1  0  0  0  0
  9 10  2  0  0  0  0
  9 11  1  0  0  0  0
M  END
> <Index>
10464

> <PropertyFieldDistance>
nan

$$$$
15545384
BBcorina  12272117083D 1   1.00000     0.00000 
CORINA 4.3.0 0026  30.10.2019
 10 10  0  0  0  0  0  0  0  0999 V2000
  -33.3380    4.0033  -43.1367 O   0  0  0  0  0  0  0  0  0  0  0  0
  -34.6786    3.5087  -43.1266 C   0  0  0  0  0  0  0  0  0  0  0  0
  -34.6578    1.9789  -43.1350 C   0  0  0  0  0  0  0  0  0  0  0  0
  -36.0932    1.4493  -43.1242 C   0  0  0  0  0  0  0  0  0  0  0  0
  -36.8332    1.9561  -44.3637 C   0  0  0  0  0  0  0  0  0  0  0  0
  -36.8540    3.4860  -44.3553 C   0  0  0  0  0  0  0  0  0  0  0  0
  -35.4186    4.0155  -44.3661 C   0  0  0  0  0  0  0  0  0  0  0  0
  -35.4390    5.5224  -44.3578 C   0  0  0  0  0  0  0  0  0  0  0  0
  -36.4929    6.1119  -44.3446 O   0  0  0  0  0  0  0  0  0  0  0  0
  -33.9184    6.4282  -44.3675 X   0  0  0  0  0  0  0  0  0  0  0  0
  1  2  1  0  0  0  0
  2  3  1  0  0  0  0
  2  7  1  0  0  0  0
  3  4  1  0  0  0  0
  4  5  1  0  0  0  0
  5  6  1  0  0  0  0
  6  7  1  0  0  0  0
  7  8  1  0  0  0  0
  8  9  2  0  0  0  0
  8 10  1  0  0  0  0
M  END
> <Index>
10521

> <PropertyFieldDistance>
nan

$$$$
7104958
BBcorina  12272117083D 1   1.00000     0.00000 
CORINA 4.3.0 0026  30.10.2019
 11 11  0  0  0  0  0  0  0  0999 V2000
  -34.8131    7.0116  -42.1163 C   0  0  0  0  0  0  0  0  0  0  0  0
  -35.1651    5.5548  -42.4240 C   0  0  0  0  0  0  0  0  0  0  0  0
  -36.6444    5.4542  -42.8064 C   0  0  0  0  0  0  0  0  0  0  0  0
  -36.9747    4.0049  -43.1704 C   0  0  0  0  0  0  0  0  0  0  0  0
  -36.1305    3.5765  -44.2929 N   0  0  0  0  0  0  0  0  0  0  0  0
  -36.5153    2.2380  -44.7601 C   0  0  0  0  0  0  0  0  0  0  0  0
  -35.8041    1.9336  -46.0534 C   0  0  0  0  0  0  0  0  0  0  0  0
  -35.0541    2.7476  -46.5361 O   0  0  0  0  0  0  0  0  0  0  0  0
  -34.7073    3.6195  -43.9337 C   0  0  0  0  0  0  0  0  0  0  0  0
  -34.3093    5.0572  -43.5922 C   0  0  0  0  0  0  0  0  0  0  0  0
  -36.0680    0.3828  -46.8648 X   0  0  0  0  0  0  0  0  0  0  0  0
  1  2  1  0  0  0  0
  2  3  1  0  0  0  0
  2 10  1  0  0  0  0
  3  4  1  0  0  0  0
  4  5  1  0  0  0  0
  5  6  1  0  0  0  0
  5  9  1  0  0  0  0
  6  7  1  0  0  0  0
  7  8  2  0  0  0  0
  7 11  1  0  0  0  0
  9 10  1  0  0  0  0
M  END
> <Index>
10524

> <PropertyFieldDistance>
nan

$$$$
16465876
BBcorina  12272117083D 1   1.00000     0.00000 
CORINA 4.3.0 0026  30.10.2019
 12 12  0  0  0  0  0  0  0  0999 V2000
  -35.0829    6.1078  -41.0928 C   0  0  0  0  0  0  0  0  0  0  0  0
  -35.3556    5.4973  -42.4007 N   0  0  0  0  0  0  0  0  0  0  0  0
  -36.5414    4.6313  -42.3408 C   0  0  0  0  0  0  0  0  0  0  0  0
  -36.8381    4.0789  -43.7370 C   0  0  0  0  0  0  0  0  0  0  0  0
  -35.6686    3.3337  -44.2244 N   0  0  0  0  0  0  0  0  0  0  0  0
  -35.9412    2.7231  -45.5324 C   0  0  0  0  0  0  0  0  0  0  0  0
  -37.0171    1.6462  -45.3782 C   0  0  0  0  0  0  0  0  0  0  0  0
  -37.2968    1.0199  -46.7200 C   0  0  0  0  0  0  0  0  0  0  0  0
  -36.6976    1.3960  -47.6987 O   0  0  0  0  0  0  0  0  0  0  0  0
  -34.4828    4.1997  -44.2843 C   0  0  0  0  0  0  0  0  0  0  0  0
  -34.1867    4.7519  -42.8880 C   0  0  0  0  0  0  0  0  0  0  0  0
  -38.5037   -0.2670  -46.8618 X   0  0  0  0  0  0  0  0  0  0  0  0
  1  2  1  0  0  0  0
  2  3  1  0  0  0  0
  2 11  1  0  0  0  0
  3  4  1  0  0  0  0
  4  5  1  0  0  0  0
  5  6  1  0  0  0  0
  5 10  1  0  0  0  0
  6  7  1  0  0  0  0
  7  8  1  0  0  0  0
  8  9  2  0  0  0  0
  8 12  1  0  0  0  0
 10 11  1  0  0  0  0
M  END
> <Index>
10534

> <PropertyFieldDistance>
nan

$$$$
12129650
BBcorina  12272117083D 1   1.00000     0.00000 
CORINA 4.3.0 0026  30.10.2019
 11 11  0  0  0  0  0  0  0  0999 V2000
  -36.3348    2.3377  -45.0064 C   0  0  0  0  0  0  0  0  0  0  0  0
  -35.9882    3.4558  -44.1256 N   0  0  0  0  0  0  0  0  0  0  0  0
  -37.0346    4.0452  -43.2939 C   0  0  0  0  0  0  0  0  0  0  0  0
  -36.6030    5.4345  -42.8193 C   0  0  0  0  0  0  0  0  0  0  0  0
  -35.2790    5.3439  -42.2802 O   0  0  0  0  0  0  0  0  0  0  0  0
  -34.2892    5.0661  -43.2735 C   0  0  0  0  0  0  0  0  0  0  0  0
  -32.9814    4.7383  -42.6000 C   0  0  0  0  0  0  0  0  0  0  0  0
  -32.9280    4.6473  -41.3970 O   0  0  0  0  0  0  0  0  0  0  0  0
  -34.7248    3.8984  -44.1143 C   0  0  0  0  0  0  0  0  0  0  0  0
  -33.9023    3.3370  -44.8066 O   0  0  0  0  0  0  0  0  0  0  0  0
  -31.5239    4.4868  -43.5723 X   0  0  0  0  0  0  0  0  0  0  0  0
  1  2  1  0  0  0  0
  2  3  1  0  0  0  0
  2  9  1  0  0  0  0
  3  4  1  0  0  0  0
  4  5  1  0  0  0  0
  5  6  1  0  0  0  0
  6  7  1  0  0  0  0
  6  9  1  0  0  0  0
  7  8  2  0  0  0  0
  7 11  1  0  0  0  0
  9 10  2  0  0  0  0
M  END
> <Index>
10547

> <PropertyFieldDistance>
nan

$$$$
13450106
BBcorina  12272117083D 1   1.00000     0.00000 
CORINA 4.3.0 0026  30.10.2019
 13 13  0  0  0  0  0  0  0  0999 V2000
  -32.9291    2.8219  -45.5732 O   0  0  0  0  0  0  0  0  0  0  0  0
  -34.2697    2.3273  -45.5631 C   0  0  0  0  0  0  0  0  0  0  0  0
  -34.9858    2.8207  -44.3043 C   0  0  0  0  0  0  0  0  0  0  0  0
  -34.2458    2.3139  -43.0647 C   0  0  0  0  0  0  0  0  0  0  0  0
  -35.1495    2.4554  -41.8382 C   0  0  0  0  0  0  0  0  0  0  0  0
  -36.5614    1.9804  -42.1865 C   0  0  0  0  0  0  0  0  0  0  0  0
  -37.5219    3.1711  -42.1581 C   0  0  0  0  0  0  0  0  0  0  0  0
  -37.3221    4.0165  -43.4176 C   0  0  0  0  0  0  0  0  0  0  0  0
  -36.0406    4.8409  -43.2804 C   0  0  0  0  0  0  0  0  0  0  0  0
  -35.0066    4.3507  -44.2959 C   0  0  0  0  0  0  0  0  0  0  0  0
  -34.9986    2.8265  -46.7840 C   0  0  0  0  0  0  0  0  0  0  0  0
  -34.4589    3.6049  -47.5332 O   0  0  0  0  0  0  0  0  0  0  0  0
  -36.6456    2.2721  -47.1198 X   0  0  0  0  0  0  0  0  0  0  0  0
  1  2  1  0  0  0  0
  2  3  1  0  0  0  0
  2 11  1  0  0  0  0
  3  4  1  0  0  0  0
  3 10  1  0  0  0  0
  4  5  1  0  0  0  0
  5  6  1  0  0  0  0
  6  7  1  0  0  0  0
  7  8  1  0  0  0  0
  8  9  1  0  0  0  0
  9 10  1  0  0  0  0
 11 12  2  0  0  0  0
 11 13  1  0  0  0  0
M  END
> <Index>
10616

> <PropertyFieldDistance>
nan

$$$$
8157720
BBcorina  12272117083D 1   1.00000     0.00000 
CORINA 4.3.0 0026  30.10.2019
 10 10  0  0  0  0  0  0  0  0999 V2000
  -36.3490    2.3379  -44.9329 C   0  0  0  0  0  0  0  0  0  0  0  0
  -36.0415    3.6586  -44.3681 N   0  0  0  0  0  0  0  0  0  0  0  0
  -36.9551    3.9850  -43.2636 C   0  0  0  0  0  0  0  0  0  0  0  0
  -36.6388    5.3903  -42.7450 C   0  0  0  0  0  0  0  0  0  0  0  0
  -35.2662    5.4487  -42.3476 O   0  0  0  0  0  0  0  0  0  0  0  0
  -34.3486    5.1369  -43.3992 C   0  0  0  0  0  0  0  0  0  0  0  0
  -34.6417    3.7290  -43.9243 C   0  0  0  0  0  0  0  0  0  0  0  0
  -33.7300    3.4249  -45.0851 C   0  0  0  0  0  0  0  0  0  0  0  0
  -34.0854    3.6710  -46.2127 O   0  0  0  0  0  0  0  0  0  0  0  0
  -32.1382    2.7069  -44.7958 X   0  0  0  0  0  0  0  0  0  0  0  0
  1  2  1  0  0  0  0
  2  3  1  0  0  0  0
  2  7  1  0  0  0  0
  3  4  1  0  0  0  0
  4  5  1  0  0  0  0
  5  6  1  0  0  0  0
  6  7  1  0  0  0  0
  7  8  1  0  0  0  0
  8  9  2  0  0  0  0
  8 10  1  0  0  0  0
M  END
> <Index>
10716

> <PropertyFieldDistance>
nan

$$$$
12053410
BBcorina  12272117083D 1   1.00000     0.00000 
CORINA 4.3.0 0026  30.10.2019
 11 11  0  0  0  0  0  0  0  0999 V2000
  -36.3683    2.2495  -44.7143 C   0  0  0  0  0  0  0  0  0  0  0  0
  -35.9920    3.5610  -44.1808 N   0  0  0  0  0  0  0  0  0  0  0  0
  -36.9484    4.4573  -43.8660 C   0  0  0  0  0  0  0  0  0  0  0  0
  -36.6577    5.6334  -43.3840 N   0  0  0  0  0  0  0  0  0  0  0  0
  -35.3839    6.0159  -43.1862 C   0  0  0  0  0  0  0  0  0  0  0  0
  -34.3560    5.1459  -43.4936 C   0  0  0  0  0  0  0  0  0  0  0  0
  -34.6888    3.8692  -44.0113 C   0  0  0  0  0  0  0  0  0  0  0  0
  -33.8171    3.0670  -44.2978 O   0  0  0  0  0  0  0  0  0  0  0  0
  -35.0852    7.3603  -42.6435 C   0  0  0  0  0  0  0  0  0  0  0  0
  -33.9391    7.6998  -42.4678 O   0  0  0  0  0  0  0  0  0  0  0  0
  -36.4069    8.4703  -42.2519 X   0  0  0  0  0  0  0  0  0  0  0  0
  1  2  1  0  0  0  0
  2  3  1  0  0  0  0
  2  7  1  0  0  0  0
  3  4  2  0  0  0  0
  4  5  1  0  0  0  0
  5  6  2  0  0  0  0
  5  9  1  0  0  0  0
  6  7  1  0  0  0  0
  7  8  2  0  0  0  0
  9 10  2  0  0  0  0
  9 11  1  0  0  0  0
M  END
> <Index>
10729

> <PropertyFieldDistance>
nan

$$$$
13217896
BBcorina  12272117083D 1   1.00000     0.00000 
CORINA 4.3.0 0026  30.10.2019
 10 10  0  0  0  0  0  0  0  0999 V2000
  -34.1240    1.7787  -42.0883 F   0  0  0  0  0  0  0  0  0  0  0  0
  -34.8006    2.2422  -43.2217 C   0  0  0  0  0  0  0  0  0  0  0  0
  -36.2360    1.7126  -43.2109 C   0  0  0  0  0  0  0  0  0  0  0  0
  -36.9760    2.2194  -44.4504 C   0  0  0  0  0  0  0  0  0  0  0  0
  -36.9968    3.7493  -44.4420 C   0  0  0  0  0  0  0  0  0  0  0  0
  -35.5614    4.2788  -44.4528 C   0  0  0  0  0  0  0  0  0  0  0  0
  -34.8214    3.7720  -43.2133 C   0  0  0  0  0  0  0  0  0  0  0  0
  -33.4076    4.2936  -43.2240 C   0  0  0  0  0  0  0  0  0  0  0  0
  -33.0307    4.9981  -44.1296 O   0  0  0  0  0  0  0  0  0  0  0  0
  -32.2994    3.8738  -41.9093 X   0  0  0  0  0  0  0  0  0  0  0  0
  1  2  1  0  0  0  0
  2  3  1  0  0  0  0
  2  7  1  0  0  0  0
  3  4  1  0  0  0  0
  4  5  1  0  0  0  0
  5  6  1  0  0  0  0
  6  7  1  0  0  0  0
  7  8  1  0  0  0  0
  8  9  2  0  0  0  0
  8 10  1  0  0  0  0
M  END
> <Index>
10756

> <PropertyFieldDistance>
nan

$$$$
12113526
BBcorina  12272117083D 1   1.00000     0.00000 
CORINA 4.3.0 0026  30.10.2019
 12 13  0  0  0  0  0  0  0  0999 V2000
  -36.0415    2.2321  -46.4507 C   0  0  0  0  0  0  0  0  0  0  0  0
  -36.7309    1.6453  -47.2598 O   0  0  0  0  0  0  0  0  0  0  0  0
  -36.6484    2.9909  -45.4223 C   0  0  0  0  0  0  0  0  0  0  0  0
  -38.0042    3.1643  -45.2024 C   0  0  0  0  0  0  0  0  0  0  0  0
  -38.1426    3.9488  -44.1326 N   0  0  0  0  0  0  0  0  0  0  0  0
  -36.9687    4.2765  -43.6696 C   0  0  0  0  0  0  0  0  0  0  0  0
  -36.6500    5.1453  -42.4744 C   0  0  0  0  0  0  0  0  0  0  0  0
  -35.2689    4.9468  -42.1429 O   0  0  0  0  0  0  0  0  0  0  0  0
  -34.3792    5.0642  -43.2569 C   0  0  0  0  0  0  0  0  0  0  0  0
  -34.5763    3.8699  -44.2003 C   0  0  0  0  0  0  0  0  0  0  0  0
  -36.0131    3.7076  -44.4365 N   0  0  0  0  0  0  0  0  0  0  0  0
  -34.2772    2.1383  -46.5579 X   0  0  0  0  0  0  0  0  0  0  0  0
  1  2  2  0  0  0  0
  1  3  1  0  0  0  0
  1 12  1  0  0  0  0
  3  4  2  0  0  0  0
  3 11  1  0  0  0  0
  4  5  1  0  0  0  0
  5  6  2  0  0  0  0
  6  7  1  0  0  0  0
  6 11  1  0  0  0  0
  7  8  1  0  0  0  0
  8  9  1  0  0  0  0
  9 10  1  0  0  0  0
 10 11  1  0  0  0  0
M  END
> <Index>
10759

> <PropertyFieldDistance>
nan

$$$$
7658082
BBcorina  12272117083D 1   1.00000     0.00000 
CORINA 4.3.0 0026  30.10.2019
 11 11  0  0  0  0  0  0  0  0999 V2000
  -35.5972    1.5121  -45.4762 C   0  0  0  0  0  0  0  0  0  0  0  0
  -36.6353    2.5815  -45.1309 C   0  0  0  0  0  0  0  0  0  0  0  0
  -36.0914    3.4778  -44.1019 N   0  0  0  0  0  0  0  0  0  0  0  0
  -37.1086    4.4249  -43.6397 C   0  0  0  0  0  0  0  0  0  0  0  0
  -36.6824    5.0336  -42.2995 C   0  0  0  0  0  0  0  0  0  0  0  0
  -35.1300    5.9482  -42.5484 S   0  0  0  0  0  0  0  0  0  0  0  0
  -34.0941    4.7090  -43.3850 C   0  0  0  0  0  0  0  0  0  0  0  0
  -34.8766    4.1449  -44.5758 C   0  0  0  0  0  0  0  0  0  0  0  0
  -36.9664    3.3779  -46.3667 C   0  0  0  0  0  0  0  0  0  0  0  0
  -36.7695    4.5691  -46.3881 O   0  0  0  0  0  0  0  0  0  0  0  0
  -37.6437    2.5671  -47.7868 X   0  0  0  0  0  0  0  0  0  0  0  0
  1  2  1  0  0  0  0
  2  3  1  0  0  0  0
  2  9  1  0  0  0  0
  3  4  1  0  0  0  0
  3  8  1  0  0  0  0
  4  5  1  0  0  0  0
  5  6  1  0  0  0  0
  6  7  1  0  0  0  0
  7  8  1  0  0  0  0
  9 10  2  0  0  0  0
  9 11  1  0  0  0  0
M  END
> <Index>
10923

> <PropertyFieldDistance>
nan

$$$$
7101316
BBcorina  12272117083D 1   1.00000     0.00000 
CORINA 4.3.0 0026  30.10.2019
 10 10  0  0  0  0  0  0  0  0999 V2000
  -35.0164    7.1644  -42.1822 C   0  0  0  0  0  0  0  0  0  0  0  0
  -33.8631    7.4547  -41.9691 O   0  0  0  0  0  0  0  0  0  0  0  0
  -35.3424    5.9298  -42.9289 C   0  0  0  0  0  0  0  0  0  0  0  0
  -36.6873    5.5786  -43.1843 C   0  0  0  0  0  0  0  0  0  0  0  0
  -36.9693    4.4464  -43.8680 C   0  0  0  0  0  0  0  0  0  0  0  0
  -35.9784    3.6349  -44.3168 N   0  0  0  0  0  0  0  0  0  0  0  0
  -34.6836    3.9292  -44.0968 C   0  0  0  0  0  0  0  0  0  0  0  0
  -33.8105    3.1866  -44.5145 O   0  0  0  0  0  0  0  0  0  0  0  0
  -34.3349    5.0983  -43.3890 C   0  0  0  0  0  0  0  0  0  0  0  0
  -36.3157    8.2163  -41.6010 X   0  0  0  0  0  0  0  0  0  0  0  0
  1  2  2  0  0  0  0
  1  3  1  0  0  0  0
  1 10  1  0  0  0  0
  3  4  1  0  0  0  0
  3  9  2  0  0  0  0
  4  5  2  0  0  0  0
  5  6  1  0  0  0  0
  6  7  1  0  0  0  0
  7  8  2  0  0  0  0
  7  9  1  0  0  0  0
M  END
> <Index>
10935

> <PropertyFieldDistance>
nan

$$$$
7044696
BBcorina  12272117083D 1   1.00000     0.00000 
CORINA 4.3.0 0026  30.10.2019
 12 13  0  0  0  0  0  0  0  0999 V2000
  -39.6192    6.4286  -45.1437 C   0  0  0  0  0  0  0  0  0  0  0  0
  -39.0604    6.3901  -46.2136 O   0  0  0  0  0  0  0  0  0  0  0  0
  -39.1715    5.5213  -44.0268 C   0  0  0  0  0  0  0  0  0  0  0  0
  -38.6982    6.3634  -42.8356 C   0  0  0  0  0  0  0  0  0  0  0  0
  -38.0088    5.4580  -41.8112 C   0  0  0  0  0  0  0  0  0  0  0  0
  -36.6668    4.9754  -42.3754 C   0  0  0  0  0  0  0  0  0  0  0  0
  -36.9027    4.4278  -43.7608 C   0  0  0  0  0  0  0  0  0  0  0  0
  -36.0943    3.6387  -44.4874 N   0  0  0  0  0  0  0  0  0  0  0  0
  -36.7312    3.3820  -45.7108 N   0  0  0  0  0  0  0  0  0  0  0  0
  -37.8855    4.0027  -45.7112 C   0  0  0  0  0  0  0  0  0  0  0  0
  -38.0183    4.6696  -44.4954 C   0  0  0  0  0  0  0  0  0  0  0  0
  -40.9687    7.5454  -44.8898 X   0  0  0  0  0  0  0  0  0  0  0  0
  1  2  2  0  0  0  0
  1  3  1  0  0  0  0
  1 12  1  0  0  0  0
  3  4  1  0  0  0  0
  3 11  1  0  0  0  0
  4  5  1  0  0  0  0
  5  6  1  0  0  0  0
  6  7  1  0  0  0  0
  7  8  1  0  0  0  0
  7 11  2  0  0  0  0
  8  9  1  0  0  0  0
  9 10  2  0  0  0  0
 10 11  1  0  0  0  0
M  END
> <Index>
10982

> <PropertyFieldDistance>
nan

$$$$
6492686
BBcorina  12272117083D 1   1.00000     0.00000 
CORINA 4.3.0 0026  30.10.2019
 16 17  0  0  0  0  0  0  0  0999 V2000
  -33.7492    0.8756  -45.0653 C   0  0  0  0  0  0  0  0  0  0  0  0
  -34.5972    1.3382  -46.1668 N   0  0  0  0  0  0  0  0  0  0  0  0
  -34.3144    1.2476  -47.5029 C   0  0  0  0  0  0  0  0  0  0  0  0
  -35.3549    1.7952  -48.1594 C   0  0  0  0  0  0  0  0  0  0  0  0
  -36.2526    2.2010  -47.2493 N   0  0  0  0  0  0  0  0  0  0  0  0
  -35.8041    1.9335  -46.0533 C   0  0  0  0  0  0  0  0  0  0  0  0
  -36.5153    2.2379  -44.7601 C   0  0  0  0  0  0  0  0  0  0  0  0
  -36.1305    3.5765  -44.2930 N   0  0  0  0  0  0  0  0  0  0  0  0
  -36.9747    4.0049  -43.1704 C   0  0  0  0  0  0  0  0  0  0  0  0
  -36.6444    5.4542  -42.8062 C   0  0  0  0  0  0  0  0  0  0  0  0
  -35.1651    5.5548  -42.4241 C   0  0  0  0  0  0  0  0  0  0  0  0
  -34.3092    5.0572  -43.5922 C   0  0  0  0  0  0  0  0  0  0  0  0
  -34.7073    3.6195  -43.9337 C   0  0  0  0  0  0  0  0  0  0  0  0
  -34.8194    6.9902  -42.1221 C   0  0  0  0  0  0  0  0  0  0  0  0
  -33.9716    7.5562  -42.7696 O   0  0  0  0  0  0  0  0  0  0  0  0
  -35.6560    7.8466  -40.8184 X   0  0  0  0  0  0  0  0  0  0  0  0
  1  2  1  0  0  0  0
  2  3  1  0  0  0  0
  2  6  1  0  0  0  0
  3  4  2  0  0  0  0
  4  5  1  0  0  0  0
  5  6  2  0  0  0  0
  6  7  1  0  0  0  0
  7  8  1  0  0  0  0
  8  9  1  0  0  0  0
  8 13  1  0  0  0  0
  9 10  1  0  0  0  0
 10 11  1  0  0  0  0
 11 12  1  0  0  0  0
 11 14  1  0  0  0  0
 12 13  1  0  0  0  0
 14 15  2  0  0  0  0
 14 16  1  0  0  0  0
M  END
> <Index>
10983

> <PropertyFieldDistance>
nan

$$$$
14414566
BBcorina  12272117083D 1   1.00000     0.00000 
CORINA 4.3.0 0026  30.10.2019
 13 13  0  0  0  0  0  0  0  0999 V2000
  -35.9366    2.0113  -46.0907 C   0  0  0  0  0  0  0  0  0  0  0  0
  -36.3838    2.0886  -44.6296 C   0  0  0  0  0  0  0  0  0  0  0  0
  -35.6756    0.9998  -43.8211 C   0  0  0  0  0  0  0  0  0  0  0  0
  -36.0408    3.4038  -44.0828 N   0  0  0  0  0  0  0  0  0  0  0  0
  -37.1254    4.2407  -43.5851 C   0  0  0  0  0  0  0  0  0  0  0  0
  -36.5816    5.3219  -42.6505 C   0  0  0  0  0  0  0  0  0  0  0  0
  -35.4232    6.0406  -43.3526 C   0  0  0  0  0  0  0  0  0  0  0  0
  -34.2599    5.0563  -43.4976 C   0  0  0  0  0  0  0  0  0  0  0  0
  -34.7573    3.7613  -44.0728 C   0  0  0  0  0  0  0  0  0  0  0  0
  -33.9468    2.9977  -44.5532 O   0  0  0  0  0  0  0  0  0  0  0  0
  -37.6727    6.3117  -42.3332 C   0  0  0  0  0  0  0  0  0  0  0  0
  -37.5410    7.4732  -42.6362 O   0  0  0  0  0  0  0  0  0  0  0  0
  -39.1474    5.7717  -41.5168 X   0  0  0  0  0  0  0  0  0  0  0  0
  1  2  1  0  0  0  0
  2  3  1  0  0  0  0
  2  4  1  0  0  0  0
  4  5  1  0  0  0  0
  4  9  1  0  0  0  0
  5  6  1  0  0  0  0
  6  7  1  0  0  0  0
  6 11  1  0  0  0  0
  7  8  1  0  0  0  0
  8  9  1  0  0  0  0
  9 10  2  0  0  0  0
 11 12  2  0  0  0  0
 11 13  1  0  0  0  0
M  END
> <Index>
11011

> <PropertyFieldDistance>
nan

$$$$
10301814
BBcorina  12272117083D 1   1.00000     0.00000 
CORINA 4.3.0 0026  30.10.2019
 10 10  0  0  0  0  0  0  0  0999 V2000
  -35.3810    1.9834  -45.3461 F   0  0  0  0  0  0  0  0  0  0  0  0
  -36.1584    2.3889  -44.2560 C   0  0  0  0  0  0  0  0  0  0  0  0
  -36.4568    3.8852  -44.3708 C   0  0  0  0  0  0  0  0  0  0  0  0
  -35.1423    4.6681  -44.3792 C   0  0  0  0  0  0  0  0  0  0  0  0
  -34.3797    4.3983  -43.0805 C   0  0  0  0  0  0  0  0  0  0  0  0
  -34.0814    2.9021  -42.9656 C   0  0  0  0  0  0  0  0  0  0  0  0
  -35.3959    2.1191  -42.9573 C   0  0  0  0  0  0  0  0  0  0  0  0
  -37.4531    1.6177  -44.2477 C   0  0  0  0  0  0  0  0  0  0  0  0
  -38.5070    2.2073  -44.2395 O   0  0  0  0  0  0  0  0  0  0  0  0
  -37.4291   -0.1521  -44.2575 X   0  0  0  0  0  0  0  0  0  0  0  0
  1  2  1  0  0  0  0
  2  3  1  0  0  0  0
  2  7  1  0  0  0  0
  2  8  1  0  0  0  0
  3  4  1  0  0  0  0
  4  5  1  0  0  0  0
  5  6  1  0  0  0  0
  6  7  1  0  0  0  0
  8  9  2  0  0  0  0
  8 10  1  0  0  0  0
M  END
> <Index>
11015

> <PropertyFieldDistance>
nan

$$$$
15499364
BBcorina  12272117083D 1   1.00000     0.00000 
CORINA 4.3.0 0026  30.10.2019
 10 12  0  0  0  0  0  0  0  0999 V2000
  -33.5790    2.6178  -42.8375 C   0  0  0  0  0  0  0  0  0  0  0  0
  -33.5626    1.4103  -42.8442 O   0  0  0  0  0  0  0  0  0  0  0  0
  -34.8942    3.3535  -42.8273 C   0  0  0  0  0  0  0  0  0  0  0  0
  -35.0408    4.2677  -44.0744 C   0  0  0  0  0  0  0  0  0  0  0  0
  -36.5476    4.3312  -44.3765 C   0  0  0  0  0  0  0  0  0  0  0  0
  -37.2342    3.4498  -43.2699 C   0  0  0  0  0  0  0  0  0  0  0  0
  -36.0987    2.3756  -43.0733 C   0  0  0  0  0  0  0  0  0  0  0  0
  -35.7508    1.9441  -44.5480 C   0  0  0  0  0  0  0  0  0  0  0  0
  -35.6019    3.3714  -45.1913 C   0  0  0  0  0  0  0  0  0  0  0  0
  -32.0583    3.5236  -42.8472 X   0  0  0  0  0  0  0  0  0  0  0  0
  1  2  2  0  0  0  0
  1  3  1  0  0  0  0
  1 10  1  0  0  0  0
  3  4  1  0  0  0  0
  3  7  1  0  0  0  0
  4  5  1  0  0  0  0
  4  9  1  0  0  0  0
  5  6  1  0  0  0  0
  5  9  1  0  0  0  0
  6  7  1  0  0  0  0
  7  8  1  0  0  0  0
  8  9  1  0  0  0  0
M  END
> <Index>
11046

> <PropertyFieldDistance>
nan

$$$$
11968312
BBcorina  12272117083D 1   1.00000     0.00000 
CORINA 4.3.0 0026  30.10.2019
 13 13  0  0  0  0  0  0  0  0999 V2000
  -34.7320    2.1861  -46.7819 C   0  0  0  0  0  0  0  0  0  0  0  0
  -35.5802    1.6419  -45.6615 C   0  0  0  0  0  0  0  0  0  0  0  0
  -35.3629    0.4092  -45.1982 C   0  0  0  0  0  0  0  0  0  0  0  0
  -36.0280   -0.0402  -43.9756 C   0  0  0  0  0  0  0  0  0  0  0  0
  -36.6787    0.7429  -43.3159 O   0  0  0  0  0  0  0  0  0  0  0  0
  -36.6737    2.4894  -45.0641 C   0  0  0  0  0  0  0  0  0  0  0  0
  -36.1080    3.3541  -44.0199 N   0  0  0  0  0  0  0  0  0  0  0  0
  -37.0874    4.3582  -43.5796 C   0  0  0  0  0  0  0  0  0  0  0  0
  -36.4788    5.1968  -42.4525 C   0  0  0  0  0  0  0  0  0  0  0  0
  -35.2622    5.7921  -42.9117 O   0  0  0  0  0  0  0  0  0  0  0  0
  -34.2854    4.8428  -43.3476 C   0  0  0  0  0  0  0  0  0  0  0  0
  -34.8719    4.0006  -44.4838 C   0  0  0  0  0  0  0  0  0  0  0  0
  -35.8835   -1.7269  -43.4584 X   0  0  0  0  0  0  0  0  0  0  0  0
  1  2  1  0  0  0  0
  2  3  2  0  0  0  0
  2  6  1  0  0  0  0
  3  4  1  0  0  0  0
  4  5  2  0  0  0  0
  4 13  1  0  0  0  0
  6  7  1  0  0  0  0
  7  8  1  0  0  0  0
  7 12  1  0  0  0  0
  8  9  1  0  0  0  0
  9 10  1  0  0  0  0
 10 11  1  0  0  0  0
 11 12  1  0  0  0  0
M  END
> <Index>
11159

> <PropertyFieldDistance>
nan

$$$$
8963154
BBcorina  12272117083D 1   1.00000     0.00000 
CORINA 4.3.0 0026  30.10.2019
 10 10  0  0  0  0  0  0  0  0999 V2000
  -36.3160    2.3485  -45.1229 C   0  0  0  0  0  0  0  0  0  0  0  0
  -36.0438    3.3943  -44.1337 N   0  0  0  0  0  0  0  0  0  0  0  0
  -37.0780    4.0936  -43.3621 C   0  0  0  0  0  0  0  0  0  0  0  0
  -36.3931    5.3614  -42.8053 C   0  0  0  0  0  0  0  0  0  0  0  0
  -34.9095    4.9272  -42.7671 C   0  0  0  0  0  0  0  0  0  0  0  0
  -34.0121    6.0838  -43.1248 C   0  0  0  0  0  0  0  0  0  0  0  0
  -34.4910    7.1606  -43.3884 O   0  0  0  0  0  0  0  0  0  0  0  0
  -34.8142    3.8395  -43.8143 C   0  0  0  0  0  0  0  0  0  0  0  0
  -33.7801    3.4283  -44.2966 O   0  0  0  0  0  0  0  0  0  0  0  0
  -32.2561    5.8640  -43.1587 X   0  0  0  0  0  0  0  0  0  0  0  0
  1  2  1  0  0  0  0
  2  3  1  0  0  0  0
  2  8  1  0  0  0  0
  3  4  1  0  0  0  0
  4  5  1  0  0  0  0
  5  6  1  0  0  0  0
  5  8  1  0  0  0  0
  6  7  2  0  0  0  0
  6 10  1  0  0  0  0
  8  9  2  0  0  0  0
M  END
> <Index>
11265

> <PropertyFieldDistance>
nan

$$$$
11971766
BBcorina  12272117083D 1   1.00000     0.00000 
CORINA 4.3.0 0026  30.10.2019
  9 10  0  0  0  0  0  0  0  0999 V2000
  -34.8268    2.7185  -41.4924 C   0  0  0  0  0  0  0  0  0  0  0  0
  -34.6422    3.7789  -40.9448 O   0  0  0  0  0  0  0  0  0  0  0  0
  -35.7288    2.6396  -42.6970 C   0  0  0  0  0  0  0  0  0  0  0  0
  -34.9528    2.1147  -43.9305 C   0  0  0  0  0  0  0  0  0  0  0  0
  -35.7490    2.6505  -45.1383 C   0  0  0  0  0  0  0  0  0  0  0  0
  -35.4034    4.0421  -45.6722 C   0  0  0  0  0  0  0  0  0  0  0  0
  -36.5234    3.8841  -44.6420 C   0  0  0  0  0  0  0  0  0  0  0  0
  -36.1822    4.0463  -43.1463 C   0  0  0  0  0  0  0  0  0  0  0  0
  -34.0378    1.2571  -40.8803 X   0  0  0  0  0  0  0  0  0  0  0  0
  1  2  2  0  0  0  0
  1  3  1  0  0  0  0
  1  9  1  0  0  0  0
  3  4  1  0  0  0  0
  3  8  1  0  0  0  0
  4  5  1  0  0  0  0
  5  6  1  0  0  0  0
  5  7  1  0  0  0  0
  6  7  1  0  0  0  0
  7  8  1  0  0  0  0
M  END
> <Index>
11273

> <PropertyFieldDistance>
nan

$$$$
12109826
BBcorina  12272117083D 1   1.00000     0.00000 
CORINA 4.3.0 0026  30.10.2019
  9 10  0  0  0  0  0  0  0  0999 V2000
  -34.8268    2.7185  -41.4924 C   0  0  0  0  0  0  0  0  0  0  0  0
  -34.6422    3.7789  -40.9448 O   0  0  0  0  0  0  0  0  0  0  0  0
  -35.7288    2.6396  -42.6970 C   0  0  0  0  0  0  0  0  0  0  0  0
  -34.9528    2.1147  -43.9305 C   0  0  0  0  0  0  0  0  0  0  0  0
  -35.7490    2.6505  -45.1383 C   0  0  0  0  0  0  0  0  0  0  0  0
  -35.4034    4.0421  -45.6722 C   0  0  0  0  0  0  0  0  0  0  0  0
  -36.5234    3.8841  -44.6420 C   0  0  0  0  0  0  0  0  0  0  0  0
  -36.1822    4.0463  -43.1463 C   0  0  0  0  0  0  0  0  0  0  0  0
  -34.0378    1.2571  -40.8803 X   0  0  0  0  0  0  0  0  0  0  0  0
  1  2  2  0  0  0  0
  1  3  1  0  0  0  0
  1  9  1  0  0  0  0
  3  4  1  0  0  0  0
  3  8  1  0  0  0  0
  4  5  1  0  0  0  0
  5  6  1  0  0  0  0
  5  7  1  0  0  0  0
  6  7  1  0  0  0  0
  7  8  1  0  0  0  0
M  END
> <Index>
11286

> <PropertyFieldDistance>
nan

$$$$
9155896
BBcorina  12272117083D 1   1.00000     0.00000 
CORINA 4.3.0 0026  30.10.2019
 10 10  0  0  0  0  0  0  0  0999 V2000
  -37.2112    3.3078  -45.9862 O   0  0  0  0  0  0  0  0  0  0  0  0
  -36.5201    2.8345  -44.8285 C   0  0  0  0  0  0  0  0  0  0  0  0
  -37.2362    3.3279  -43.5697 C   0  0  0  0  0  0  0  0  0  0  0  0
  -36.4962    2.8211  -42.3301 C   0  0  0  0  0  0  0  0  0  0  0  0
  -35.0608    3.3506  -42.3410 C   0  0  0  0  0  0  0  0  0  0  0  0
  -34.3447    2.8572  -43.5998 C   0  0  0  0  0  0  0  0  0  0  0  0
  -35.0847    3.3641  -44.8393 C   0  0  0  0  0  0  0  0  0  0  0  0
  -32.9309    3.3788  -43.6105 C   0  0  0  0  0  0  0  0  0  0  0  0
  -32.5368    4.0735  -42.7048 O   0  0  0  0  0  0  0  0  0  0  0  0
  -31.8481    2.9732  -44.9506 X   0  0  0  0  0  0  0  0  0  0  0  0
  1  2  1  0  0  0  0
  2  3  1  0  0  0  0
  2  7  1  0  0  0  0
  3  4  1  0  0  0  0
  4  5  1  0  0  0  0
  5  6  1  0  0  0  0
  6  7  1  0  0  0  0
  6  8  1  0  0  0  0
  8  9  2  0  0  0  0
  8 10  1  0  0  0  0
M  END
> <Index>
11289

> <PropertyFieldDistance>
nan

$$$$
13033414
BBcorina  12272117083D 1   1.00000     0.00000 
CORINA 4.3.0 0026  30.10.2019
 10 10  0  0  0  0  0  0  0  0999 V2000
  -33.4935    1.9750  -45.0922 C   0  0  0  0  0  0  0  0  0  0  0  0
  -32.9976    2.7325  -45.8914 O   0  0  0  0  0  0  0  0  0  0  0  0
  -34.4090    2.5053  -44.0191 C   0  0  0  0  0  0  0  0  0  0  0  0
  -35.7872    1.8570  -44.1606 C   0  0  0  0  0  0  0  0  0  0  0  0
  -36.6902    2.3256  -43.0148 C   0  0  0  0  0  0  0  0  0  0  0  0
  -36.7107    3.8382  -43.0065 C   0  0  0  0  0  0  0  0  0  0  0  0
  -37.8444    4.4946  -42.9975 C   0  0  0  0  0  0  0  0  0  0  0  0
  -35.3888    4.5734  -43.0151 C   0  0  0  0  0  0  0  0  0  0  0  0
  -34.5329    4.0232  -44.1609 C   0  0  0  0  0  0  0  0  0  0  0  0
  -33.1449    0.2419  -45.1813 X   0  0  0  0  0  0  0  0  0  0  0  0
  1  2  2  0  0  0  0
  1  3  1  0  0  0  0
  1 10  1  0  0  0  0
  3  4  1  0  0  0  0
  3  9  1  0  0  0  0
  4  5  1  0  0  0  0
  5  6  1  0  0  0  0
  6  7  2  0  0  0  0
  6  8  1  0  0  0  0
  8  9  1  0  0  0  0
M  END
> <Index>
11299

> <PropertyFieldDistance>
nan

$$$$
10965068
BBcorina  12272117083D 1   1.00000     0.00000 
CORINA 4.3.0 0026  30.10.2019
 10 10  0  0  0  0  0  0  0  0999 V2000
  -36.0691    4.6680  -45.5440 F   0  0  0  0  0  0  0  0  0  0  0  0
  -36.7927    4.3139  -44.4001 C   0  0  0  0  0  0  0  0  0  0  0  0
  -35.9895    4.6876  -43.1527 C   0  0  0  0  0  0  0  0  0  0  0  0
  -34.6543    3.9407  -43.1630 C   0  0  0  0  0  0  0  0  0  0  0  0
  -34.9134    2.4328  -43.1700 C   0  0  0  0  0  0  0  0  0  0  0  0
  -35.7165    2.0591  -44.4175 C   0  0  0  0  0  0  0  0  0  0  0  0
  -37.0518    2.8060  -44.4071 C   0  0  0  0  0  0  0  0  0  0  0  0
  -33.5982    1.6971  -43.1802 C   0  0  0  0  0  0  0  0  0  0  0  0
  -32.5607    2.3151  -43.1868 O   0  0  0  0  0  0  0  0  0  0  0  0
  -33.5742   -0.0727  -43.1900 X   0  0  0  0  0  0  0  0  0  0  0  0
  1  2  1  0  0  0  0
  2  3  1  0  0  0  0
  2  7  1  0  0  0  0
  3  4  1  0  0  0  0
  4  5  1  0  0  0  0
  5  6  1  0  0  0  0
  5  8  1  0  0  0  0
  6  7  1  0  0  0  0
  8  9  2  0  0  0  0
  8 10  1  0  0  0  0
M  END
> <Index>
11300

> <PropertyFieldDistance>
nan

$$$$
10427764
BBcorina  12272117083D 1   1.00000     0.00000 
CORINA 4.3.0 0026  30.10.2019
 10 10  0  0  0  0  0  0  0  0999 V2000
  -37.6743    4.2214  -44.8065 C   0  0  0  0  0  0  0  0  0  0  0  0
  -37.0230    3.7877  -45.7263 O   0  0  0  0  0  0  0  0  0  0  0  0
  -37.1659    4.0875  -43.3941 C   0  0  0  0  0  0  0  0  0  0  0  0
  -35.8349    3.3808  -43.4042 C   0  0  0  0  0  0  0  0  0  0  0  0
  -34.7484    4.0943  -43.4108 C   0  0  0  0  0  0  0  0  0  0  0  0
  -33.3745    3.4872  -43.4363 C   0  0  0  0  0  0  0  0  0  0  0  0
  -33.4422    2.1023  -43.0902 O   0  0  0  0  0  0  0  0  0  0  0  0
  -34.4294    1.3847  -43.8412 C   0  0  0  0  0  0  0  0  0  0  0  0
  -35.8145    1.8771  -43.4125 C   0  0  0  0  0  0  0  0  0  0  0  0
  -39.2260    5.0143  -45.1171 X   0  0  0  0  0  0  0  0  0  0  0  0
  1  2  2  0  0  0  0
  1  3  1  0  0  0  0
  1 10  1  0  0  0  0
  3  4  1  0  0  0  0
  4  5  2  0  0  0  0
  4  9  1  0  0  0  0
  5  6  1  0  0  0  0
  6  7  1  0  0  0  0
  7  8  1  0  0  0  0
  8  9  1  0  0  0  0
M  END
> <Index>
11304

> <PropertyFieldDistance>
nan

$$$$
12206230
BBcorina  12272117083D 1   1.00000     0.00000 
CORINA 4.3.0 0026  30.10.2019
 12 13  0  0  0  0  0  0  0  0999 V2000
  -37.9024    4.9717  -44.8024 C   0  0  0  0  0  0  0  0  0  0  0  0
  -37.2755    5.7759  -45.4496 O   0  0  0  0  0  0  0  0  0  0  0  0
  -37.2016    4.1204  -43.7752 C   0  0  0  0  0  0  0  0  0  0  0  0
  -37.0126    4.9171  -42.4615 C   0  0  0  0  0  0  0  0  0  0  0  0
  -35.4691    5.0799  -42.2979 C   0  0  0  0  0  0  0  0  0  0  0  0
  -34.9775    4.8729  -43.7418 C   0  0  0  0  0  0  0  0  0  0  0  0
  -33.5403    4.3735  -43.8228 C   0  0  0  0  0  0  0  0  0  0  0  0
  -33.2231    4.1087  -45.3026 C   0  0  0  0  0  0  0  0  0  0  0  0
  -34.2267    3.1229  -45.8997 C   0  0  0  0  0  0  0  0  0  0  0  0
  -35.6656    3.6094  -45.6692 C   0  0  0  0  0  0  0  0  0  0  0  0
  -35.8553    3.7797  -44.2365 N   0  0  0  0  0  0  0  0  0  0  0  0
  -39.6443    4.7931  -45.0604 X   0  0  0  0  0  0  0  0  0  0  0  0
  1  2  2  0  0  0  0
  1  3  1  0  0  0  0
  1 12  1  0  0  0  0
  3  4  1  0  0  0  0
  3 11  1  0  0  0  0
  4  5  1  0  0  0  0
  5  6  1  0  0  0  0
  6  7  1  0  0  0  0
  6 11  1  0  0  0  0
  7  8  1  0  0  0  0
  8  9  1  0  0  0  0
  9 10  1  0  0  0  0
 10 11  1  0  0  0  0
M  END
> <Index>
11359

> <PropertyFieldDistance>
nan

$$$$
5635440
BBcorina  12272117083D 1   1.00000     0.00000 
CORINA 4.3.0 0026  30.10.2019
 11 11  0  0  0  0  0  0  0  0999 V2000
  -35.6742    0.3824  -43.7682 C   0  0  0  0  0  0  0  0  0  0  0  0
  -36.1975   -0.2236  -44.6722 O   0  0  0  0  0  0  0  0  0  0  0  0
  -35.6947    1.8893  -43.7599 C   0  0  0  0  0  0  0  0  0  0  0  0
  -36.4347    2.3961  -44.9995 C   0  0  0  0  0  0  0  0  0  0  0  0
  -36.1228    3.8793  -45.2083 C   0  0  0  0  0  0  0  0  0  0  0  0
  -34.6254    4.1197  -45.0070 C   0  0  0  0  0  0  0  0  0  0  0  0
  -34.4092    4.9728  -43.7553 C   0  0  0  0  0  0  0  0  0  0  0  0
  -34.6013    4.1061  -42.5091 C   0  0  0  0  0  0  0  0  0  0  0  0
  -36.0946    3.8635  -42.2820 C   0  0  0  0  0  0  0  0  0  0  0  0
  -36.4109    2.3827  -42.5010 C   0  0  0  0  0  0  0  0  0  0  0  0
  -34.8832   -0.4992  -42.4529 X   0  0  0  0  0  0  0  0  0  0  0  0
  1  2  2  0  0  0  0
  1  3  1  0  0  0  0
  1 11  1  0  0  0  0
  3  4  1  0  0  0  0
  3 10  1  0  0  0  0
  4  5  1  0  0  0  0
  5  6  1  0  0  0  0
  6  7  1  0  0  0  0
  7  8  1  0  0  0  0
  8  9  1  0  0  0  0
  9 10  1  0  0  0  0
M  END
> <Index>
11366

> <PropertyFieldDistance>
nan

$$$$
8845354
BBcorina  12272117083D 1   1.00000     0.00000 
CORINA 4.3.0 0026  30.10.2019
 12 12  0  0  0  0  0  0  0  0999 V2000
  -38.9207    4.2870  -41.6850 C   0  0  0  0  0  0  0  0  0  0  0  0
  -37.9150    3.3989  -42.4203 C   0  0  0  0  0  0  0  0  0  0  0  0
  -37.1233    4.2445  -43.4199 C   0  0  0  0  0  0  0  0  0  0  0  0
  -36.2173    5.2416  -42.6673 C   0  0  0  0  0  0  0  0  0  0  0  0
  -34.9235    5.2503  -43.5235 C   0  0  0  0  0  0  0  0  0  0  0  0
  -34.8463    3.7701  -43.9816 C   0  0  0  0  0  0  0  0  0  0  0  0
  -36.2472    3.3792  -44.2232 N   0  0  0  0  0  0  0  0  0  0  0  0
  -36.6564    2.3889  -45.0406 C   0  0  0  0  0  0  0  0  0  0  0  0
  -37.8326    2.0947  -45.0957 O   0  0  0  0  0  0  0  0  0  0  0  0
  -35.6653    1.6589  -45.8817 C   0  0  0  0  0  0  0  0  0  0  0  0
  -34.4947    1.9517  -45.8268 O   0  0  0  0  0  0  0  0  0  0  0  0
  -36.2038    0.3632  -46.9605 X   0  0  0  0  0  0  0  0  0  0  0  0
  1  2  1  0  0  0  0
  2  3  1  0  0  0  0
  3  4  1  0  0  0  0
  3  7  1  0  0  0  0
  4  5  1  0  0  0  0
  5  6  1  0  0  0  0
  6  7  1  0  0  0  0
  7  8  1  0  0  0  0
  8  9  2  0  0  0  0
  8 10  1  0  0  0  0
 10 11  2  0  0  0  0
 10 12  1  0  0  0  0
M  END
> <Index>
11393

> <PropertyFieldDistance>
nan

$$$$
10954510
BBcorina  12272117083D 1   1.00000     0.00000 
CORINA 4.3.0 0026  30.10.2019
  9  9  0  0  0  0  0  0  0  0999 V2000
  -35.0958    3.1152  -41.4846 C   0  0  0  0  0  0  0  0  0  0  0  0
  -34.8515    2.0006  -41.8798 O   0  0  0  0  0  0  0  0  0  0  0  0
  -35.0503    4.2801  -42.4396 C   0  0  0  0  0  0  0  0  0  0  0  0
  -36.4294    4.9757  -42.5107 C   0  0  0  0  0  0  0  0  0  0  0  0
  -37.0736    4.2745  -43.7271 C   0  0  0  0  0  0  0  0  0  0  0  0
  -35.9513    3.8125  -44.5523 N   0  0  0  0  0  0  0  0  0  0  0  0
  -34.8035    3.8004  -43.8530 C   0  0  0  0  0  0  0  0  0  0  0  0
  -33.7267    3.4546  -44.2911 O   0  0  0  0  0  0  0  0  0  0  0  0
  -35.5071    3.3808  -39.7837 X   0  0  0  0  0  0  0  0  0  0  0  0
  1  2  2  0  0  0  0
  1  3  1  0  0  0  0
  1  9  1  0  0  0  0
  3  4  1  0  0  0  0
  3  7  1  0  0  0  0
  4  5  1  0  0  0  0
  5  6  1  0  0  0  0
  6  7  1  0  0  0  0
  7  8  2  0  0  0  0
M  END
> <Index>
11421

> <PropertyFieldDistance>
nan

$$$$
7104970
BBcorina  12272117083D 1   1.00000     0.00000 
CORINA 4.3.0 0026  30.10.2019
 10 10  0  0  0  0  0  0  0  0999 V2000
  -35.0503    6.8687  -41.7518 C   0  0  0  0  0  0  0  0  0  0  0  0
  -33.9445    6.8084  -41.2704 O   0  0  0  0  0  0  0  0  0  0  0  0
  -35.4227    5.9660  -42.8996 C   0  0  0  0  0  0  0  0  0  0  0  0
  -36.6104    5.0832  -42.4979 C   0  0  0  0  0  0  0  0  0  0  0  0
  -37.0859    4.3072  -43.7269 C   0  0  0  0  0  0  0  0  0  0  0  0
  -35.9635    3.6397  -44.3743 N   0  0  0  0  0  0  0  0  0  0  0  0
  -34.6863    3.9752  -44.1895 C   0  0  0  0  0  0  0  0  0  0  0  0
  -33.8386    3.3739  -44.8146 O   0  0  0  0  0  0  0  0  0  0  0  0
  -34.2412    5.0583  -43.2491 C   0  0  0  0  0  0  0  0  0  0  0  0
  -36.2339    8.0174  -41.1094 X   0  0  0  0  0  0  0  0  0  0  0  0
  1  2  2  0  0  0  0
  1  3  1  0  0  0  0
  1 10  1  0  0  0  0
  3  4  1  0  0  0  0
  3  9  1  0  0  0  0
  4  5  1  0  0  0  0
  5  6  1  0  0  0  0
  6  7  1  0  0  0  0
  7  8  2  0  0  0  0
  7  9  1  0  0  0  0
M  END
> <Index>
11424

> <PropertyFieldDistance>
nan

$$$$
15608388
BBcorina  12272117083D 1   1.00000     0.00000 
CORINA 4.3.0 0026  30.10.2019
  8  8  0  0  0  0  0  0  0  0999 V2000
  -37.3603    5.7585  -44.7304 C   0  0  0  0  0  0  0  0  0  0  0  0
  -36.6116    5.9550  -45.6574 O   0  0  0  0  0  0  0  0  0  0  0  0
  -37.1939    4.5289  -43.8751 C   0  0  0  0  0  0  0  0  0  0  0  0
  -36.4651    4.7811  -42.5513 C   0  0  0  0  0  0  0  0  0  0  0  0
  -35.3268    3.9211  -43.0441 C   0  0  0  0  0  0  0  0  0  0  0  0
  -34.2586    3.5594  -42.5979 O   0  0  0  0  0  0  0  0  0  0  0  0
  -36.0046    3.7318  -44.1971 N   0  0  0  0  0  0  0  0  0  0  0  0
  -38.6530    6.9146  -44.3765 X   0  0  0  0  0  0  0  0  0  0  0  0
  1  2  2  0  0  0  0
  1  3  1  0  0  0  0
  1  8  1  0  0  0  0
  3  4  1  0  0  0  0
  3  7  1  0  0  0  0
  4  5  1  0  0  0  0
  5  6  2  0  0  0  0
  5  7  1  0  0  0  0
M  END
> <Index>
11500

> <PropertyFieldDistance>
nan

$$$$
6674344
BBcorina  12272117083D 1   1.00000     0.00000 
CORINA 4.3.0 0026  30.10.2019
 11 11  0  0  0  0  0  0  0  0999 V2000
  -37.7076    5.4777  -43.1565 C   0  0  0  0  0  0  0  0  0  0  0  0
  -36.6701    6.0956  -43.1631 O   0  0  0  0  0  0  0  0  0  0  0  0
  -37.6871    3.9708  -43.1648 C   0  0  0  0  0  0  0  0  0  0  0  0
  -36.2379    3.4805  -43.1813 C   0  0  0  0  0  0  0  0  0  0  0  0
  -36.2286    2.0324  -43.0357 C   0  0  0  0  0  0  0  0  0  0  0  0
  -34.7989    1.4568  -42.9754 C   0  0  0  0  0  0  0  0  0  0  0  0
  -34.2604    1.3666  -44.3776 C   0  0  0  0  0  0  0  0  0  0  0  0
  -33.4368    2.6069  -44.7737 C   0  0  0  0  0  0  0  0  0  0  0  0
  -34.0764    3.9255  -44.2984 C   0  0  0  0  0  0  0  0  0  0  0  0
  -35.5693    3.9420  -44.4924 C   0  0  0  0  0  0  0  0  0  0  0  0
  -39.2523    6.3417  -43.1445 X   0  0  0  0  0  0  0  0  0  0  0  0
  1  2  2  0  0  0  0
  1  3  1  0  0  0  0
  1 11  1  0  0  0  0
  3  4  1  0  0  0  0
  4  5  1  0  0  0  0
  4 10  1  0  0  0  0
  5  6  1  0  0  0  0
  6  7  1  0  0  0  0
  7  8  1  0  0  0  0
  8  9  1  0  0  0  0
  9 10  1  0  0  0  0
M  END
> <Index>
11530

> <PropertyFieldDistance>
nan

$$$$
7592994
BBcorina  12272117083D 1   1.00000     0.00000 
CORINA 4.3.0 0026  30.10.2019
 12 12  0  0  0  0  0  0  0  0999 V2000
  -36.8602    1.6271  -45.5787 C   0  0  0  0  0  0  0  0  0  0  0  0
  -35.7486    2.6585  -45.3756 C   0  0  0  0  0  0  0  0  0  0  0  0
  -35.9109    3.7902  -46.3923 C   0  0  0  0  0  0  0  0  0  0  0  0
  -35.8318    3.2068  -44.0152 N   0  0  0  0  0  0  0  0  0  0  0  0
  -36.9976    4.1218  -43.8759 C   0  0  0  0  0  0  0  0  0  0  0  0
  -36.6589    5.0014  -42.6532 C   0  0  0  0  0  0  0  0  0  0  0  0
  -35.1203    4.9659  -42.5478 C   0  0  0  0  0  0  0  0  0  0  0  0
  -34.6588    4.0677  -43.7156 C   0  0  0  0  0  0  0  0  0  0  0  0
  -33.4636    3.2122  -43.2908 C   0  0  0  0  0  0  0  0  0  0  0  0
  -32.2776    4.1030  -43.0246 C   0  0  0  0  0  0  0  0  0  0  0  0
  -32.3945    5.3026  -43.0994 O   0  0  0  0  0  0  0  0  0  0  0  0
  -30.7130    3.3910  -42.6024 X   0  0  0  0  0  0  0  0  0  0  0  0
  1  2  1  0  0  0  0
  2  3  1  0  0  0  0
  2  4  1  0  0  0  0
  4  5  1  0  0  0  0
  4  8  1  0  0  0  0
  5  6  1  0  0  0  0
  6  7  1  0  0  0  0
  7  8  1  0  0  0  0
  8  9  1  0  0  0  0
  9 10  1  0  0  0  0
 10 11  2  0  0  0  0
 10 12  1  0  0  0  0
M  END
> <Index>
11558

> <PropertyFieldDistance>
nan

$$$$
9746396
BBcorina  12272117083D 1   1.00000     0.00000 
CORINA 4.3.0 0026  30.10.2019
 13 14  0  0  0  0  0  0  0  0999 V2000
  -36.2452    2.2412  -44.2959 C   0  0  0  0  0  0  0  0  0  0  0  0
  -36.4177    3.6406  -44.6933 N   0  0  0  0  0  0  0  0  0  0  0  0
  -36.3834    4.1376  -46.0048 N   0  0  0  0  0  0  0  0  0  0  0  0
  -36.5809    5.4325  -45.9588 C   0  0  0  0  0  0  0  0  0  0  0  0
  -36.7412    5.7983  -44.6243 C   0  0  0  0  0  0  0  0  0  0  0  0
  -36.9900    7.1767  -44.0647 C   0  0  0  0  0  0  0  0  0  0  0  0
  -36.6839    7.1513  -42.5622 C   0  0  0  0  0  0  0  0  0  0  0  0
  -37.4083    5.9690  -41.9127 C   0  0  0  0  0  0  0  0  0  0  0  0
  -36.7537    4.6573  -42.3632 C   0  0  0  0  0  0  0  0  0  0  0  0
  -36.6345    4.6769  -43.8666 C   0  0  0  0  0  0  0  0  0  0  0  0
  -37.3170    6.0867  -40.4131 C   0  0  0  0  0  0  0  0  0  0  0  0
  -36.7845    5.2140  -39.7702 O   0  0  0  0  0  0  0  0  0  0  0  0
  -37.9900    7.5041  -39.5939 X   0  0  0  0  0  0  0  0  0  0  0  0
  1  2  1  0  0  0  0
  2  3  1  0  0  0  0
  2 10  1  0  0  0  0
  3  4  2  0  0  0  0
  4  5  1  0  0  0  0
  5  6  1  0  0  0  0
  5 10  2  0  0  0  0
  6  7  1  0  0  0  0
  7  8  1  0  0  0  0
  8  9  1  0  0  0  0
  8 11  1  0  0  0  0
  9 10  1  0  0  0  0
 11 12  2  0  0  0  0
 11 13  1  0  0  0  0
M  END
> <Index>
11574

> <PropertyFieldDistance>
nan

$$$$
13142152
BBcorina  12272117083D 1   1.00000     0.00000 
CORINA 4.3.0 0026  30.10.2019
 11 11  0  0  0  0  0  0  0  0999 V2000
  -35.1845    6.3171  -44.2753 F   0  0  0  0  0  0  0  0  0  0  0  0
  -35.1785    5.4043  -43.2152 C   0  0  0  0  0  0  0  0  0  0  0  0
  -36.6262    5.0856  -42.7574 C   0  0  0  0  0  0  0  0  0  0  0  0
  -37.0461    4.0006  -43.7803 C   0  0  0  0  0  0  0  0  0  0  0  0
  -35.8243    3.1982  -44.0024 N   0  0  0  0  0  0  0  0  0  0  0  0
  -35.7596    2.7097  -45.3863 C   0  0  0  0  0  0  0  0  0  0  0  0
  -36.8490    1.6584  -45.6074 C   0  0  0  0  0  0  0  0  0  0  0  0
  -36.7827    1.1572  -47.0272 C   0  0  0  0  0  0  0  0  0  0  0  0
  -35.9501    1.5957  -47.7840 O   0  0  0  0  0  0  0  0  0  0  0  0
  -34.6508    4.0309  -43.6806 C   0  0  0  0  0  0  0  0  0  0  0  0
  -37.9251   -0.0740  -47.5853 X   0  0  0  0  0  0  0  0  0  0  0  0
  1  2  1  0  0  0  0
  2  3  1  0  0  0  0
  2 10  1  0  0  0  0
  3  4  1  0  0  0  0
  4  5  1  0  0  0  0
  5  6  1  0  0  0  0
  5 10  1  0  0  0  0
  6  7  1  0  0  0  0
  7  8  1  0  0  0  0
  8  9  2  0  0  0  0
  8 11  1  0  0  0  0
M  END
> <Index>
11607

> <PropertyFieldDistance>
nan

$$$$
12309272
BBcorina  12272117083D 1   1.00000     0.00000 
CORINA 4.3.0 0026  30.10.2019
 13 14  0  0  0  0  0  0  0  0999 V2000
  -34.3820    2.1597  -47.3153 C   0  0  0  0  0  0  0  0  0  0  0  0
  -34.8010    2.8898  -46.0653 C   0  0  0  0  0  0  0  0  0  0  0  0
  -36.0538    2.9602  -45.5715 C   0  0  0  0  0  0  0  0  0  0  0  0
  -35.9859    3.7137  -44.4376 N   0  0  0  0  0  0  0  0  0  0  0  0
  -37.0818    4.0826  -43.5386 C   0  0  0  0  0  0  0  0  0  0  0  0
  -36.6308    5.2601  -42.6658 C   0  0  0  0  0  0  0  0  0  0  0  0
  -35.2744    4.9360  -42.0330 C   0  0  0  0  0  0  0  0  0  0  0  0
  -34.1959    4.9268  -43.1238 C   0  0  0  0  0  0  0  0  0  0  0  0
  -34.6929    4.0804  -44.2719 C   0  0  0  0  0  0  0  0  0  0  0  0
  -33.9918    3.5846  -45.2491 N   0  0  0  0  0  0  0  0  0  0  0  0
  -34.9377    5.9816  -41.0012 C   0  0  0  0  0  0  0  0  0  0  0  0
  -33.9391    6.6497  -41.1223 O   0  0  0  0  0  0  0  0  0  0  0  0
  -36.0060    6.2303  -39.6121 X   0  0  0  0  0  0  0  0  0  0  0  0
  1  2  1  0  0  0  0
  2  3  2  0  0  0  0
  2 10  1  0  0  0  0
  3  4  1  0  0  0  0
  4  5  1  0  0  0  0
  4  9  1  0  0  0  0
  5  6  1  0  0  0  0
  6  7  1  0  0  0  0
  7  8  1  0  0  0  0
  7 11  1  0  0  0  0
  8  9  1  0  0  0  0
  9 10  2  0  0  0  0
 11 12  2  0  0  0  0
 11 13  1  0  0  0  0
M  END
> <Index>
11608

> <PropertyFieldDistance>
nan

$$$$
13032930
BBcorina  12272117083D 1   1.00000     0.00000 
CORINA 4.3.0 0026  30.10.2019
 11 12  0  0  0  0  0  0  0  0999 V2000
  -36.7710    4.0692  -43.6303 C   0  0  0  0  0  0  0  0  0  0  0  0
  -37.7085    3.4376  -43.2053 O   0  0  0  0  0  0  0  0  0  0  0  0
  -36.0438    3.6004  -44.8641 C   0  0  0  0  0  0  0  0  0  0  0  0
  -36.1651    2.0836  -44.9591 C   0  0  0  0  0  0  0  0  0  0  0  0
  -35.5931    1.4436  -43.6715 C   0  0  0  0  0  0  0  0  0  0  0  0
  -36.0170    2.3935  -42.5228 C   0  0  0  0  0  0  0  0  0  0  0  0
  -35.0631    3.5976  -42.4249 C   0  0  0  0  0  0  0  0  0  0  0  0
  -33.9453    3.5392  -43.4966 C   0  0  0  0  0  0  0  0  0  0  0  0
  -34.5975    4.0773  -44.7927 C   0  0  0  0  0  0  0  0  0  0  0  0
  -33.7729    1.7232  -43.7663 S   0  0  0  0  0  0  0  0  0  0  0  0
  -36.2512    5.5457  -42.8040 X   0  0  0  0  0  0  0  0  0  0  0  0
  1  2  2  0  0  0  0
  1  3  1  0  0  0  0
  1 11  1  0  0  0  0
  3  4  1  0  0  0  0
  3  9  1  0  0  0  0
  4  5  1  0  0  0  0
  5  6  1  0  0  0  0
  5 10  1  0  0  0  0
  6  7  1  0  0  0  0
  7  8  1  0  0  0  0
  8  9  1  0  0  0  0
  8 10  1  0  0  0  0
M  END
> <Index>
11619

> <PropertyFieldDistance>
nan

$$$$
17835240
BBcorina  12272117083D 1   1.00000     0.00000 
CORINA 4.3.0 0026  30.10.2019
 13 14  0  0  0  0  0  0  0  0999 V2000
  -36.1557    2.3813  -43.9394 C   0  0  0  0  0  0  0  0  0  0  0  0
  -36.0556    3.6988  -44.5816 N   0  0  0  0  0  0  0  0  0  0  0  0
  -36.9822    4.6573  -43.9639 C   0  0  0  0  0  0  0  0  0  0  0  0
  -36.7648    4.6851  -42.4440 C   0  0  0  0  0  0  0  0  0  0  0  0
  -35.2864    4.8398  -42.1929 C   0  0  0  0  0  0  0  0  0  0  0  0
  -34.6361    5.1974  -41.0695 N   0  0  0  0  0  0  0  0  0  0  0  0
  -33.3646    5.2122  -41.2833 N   0  0  0  0  0  0  0  0  0  0  0  0
  -33.1083    4.8692  -42.5370 C   0  0  0  0  0  0  0  0  0  0  0  0
  -31.7835    4.7693  -43.1663 C   0  0  0  0  0  0  0  0  0  0  0  0
  -31.6882    4.4428  -44.3303 O   0  0  0  0  0  0  0  0  0  0  0  0
  -34.3485    4.6199  -43.1489 C   0  0  0  0  0  0  0  0  0  0  0  0
  -34.6679    4.1952  -44.5552 C   0  0  0  0  0  0  0  0  0  0  0  0
  -30.3276    5.1256  -42.2250 X   0  0  0  0  0  0  0  0  0  0  0  0
  1  2  1  0  0  0  0
  2  3  1  0  0  0  0
  2 12  1  0  0  0  0
  3  4  1  0  0  0  0
  4  5  1  0  0  0  0
  5  6  1  0  0  0  0
  5 11  2  0  0  0  0
  6  7  1  0  0  0  0
  7  8  2  0  0  0  0
  8  9  1  0  0  0  0
  8 11  1  0  0  0  0
  9 10  2  0  0  0  0
  9 13  1  0  0  0  0
 11 12  1  0  0  0  0
M  END
> <Index>
11643

> <PropertyFieldDistance>
nan

$$$$
12421236
BBcorina  12272117083D 1   1.00000     0.00000 
CORINA 4.3.0 0026  30.10.2019
 12 12  0  0  0  0  0  0  0  0999 V2000
  -36.3496    2.3571  -44.9464 C   0  0  0  0  0  0  0  0  0  0  0  0
  -36.0372    3.6631  -44.3508 N   0  0  0  0  0  0  0  0  0  0  0  0
  -36.9514    3.9682  -43.2428 C   0  0  0  0  0  0  0  0  0  0  0  0
  -36.6923    5.3915  -42.7433 C   0  0  0  0  0  0  0  0  0  0  0  0
  -35.2385    5.5066  -42.2766 C   0  0  0  0  0  0  0  0  0  0  0  0
  -34.3081    5.1368  -43.4351 C   0  0  0  0  0  0  0  0  0  0  0  0
  -34.4936    6.0597  -44.5103 O   0  0  0  0  0  0  0  0  0  0  0  0
  -32.8546    5.1912  -42.9603 C   0  0  0  0  0  0  0  0  0  0  0  0
  -31.9398    4.8226  -44.0997 C   0  0  0  0  0  0  0  0  0  0  0  0
  -32.4025    4.5448  -45.1800 O   0  0  0  0  0  0  0  0  0  0  0  0
  -34.6362    3.7210  -43.9147 C   0  0  0  0  0  0  0  0  0  0  0  0
  -30.1870    4.7964  -43.8545 X   0  0  0  0  0  0  0  0  0  0  0  0
  1  2  1  0  0  0  0
  2  3  1  0  0  0  0
  2 11  1  0  0  0  0
  3  4  1  0  0  0  0
  4  5  1  0  0  0  0
  5  6  1  0  0  0  0
  6  7  1  0  0  0  0
  6  8  1  0  0  0  0
  6 11  1  0  0  0  0
  8  9  1  0  0  0  0
  9 10  2  0  0  0  0
  9 12  1  0  0  0  0
M  END
> <Index>
11649

> <PropertyFieldDistance>
nan

$$$$
12398300
BBcorina  12272117083D 1   1.00000     0.00000 
CORINA 4.3.0 0026  30.10.2019
 11 11  0  0  0  0  0  0  0  0999 V2000
  -36.9617    1.7637  -45.6725 C   0  0  0  0  0  0  0  0  0  0  0  0
  -35.7080    2.3230  -45.0505 C   0  0  0  0  0  0  0  0  0  0  0  0
  -34.6409    1.7801  -45.2440 O   0  0  0  0  0  0  0  0  0  0  0  0
  -35.7728    3.4265  -44.2795 N   0  0  0  0  0  0  0  0  0  0  0  0
  -36.9978    4.1835  -43.9639 C   0  0  0  0  0  0  0  0  0  0  0  0
  -36.6824    4.9113  -42.6333 C   0  0  0  0  0  0  0  0  0  0  0  0
  -35.1880    5.2808  -42.8269 C   0  0  0  0  0  0  0  0  0  0  0  0
  -34.6332    4.0753  -43.6146 C   0  0  0  0  0  0  0  0  0  0  0  0
  -33.6407    4.5492  -44.6449 C   0  0  0  0  0  0  0  0  0  0  0  0
  -33.9776    4.6665  -45.7985 O   0  0  0  0  0  0  0  0  0  0  0  0
  -31.9812    4.9337  -44.1639 X   0  0  0  0  0  0  0  0  0  0  0  0
  1  2  1  0  0  0  0
  2  3  2  0  0  0  0
  2  4  1  0  0  0  0
  4  5  1  0  0  0  0
  4  8  1  0  0  0  0
  5  6  1  0  0  0  0
  6  7  1  0  0  0  0
  7  8  1  0  0  0  0
  8  9  1  0  0  0  0
  9 10  2  0  0  0  0
  9 11  1  0  0  0  0
M  END
> <Index>
11670

> <PropertyFieldDistance>
nan

$$$$
17310318
BBcorina  12272117083D 1   1.00000     0.00000 
CORINA 4.3.0 0026  30.10.2019
 14 14  0  0  0  0  0  0  0  0999 V2000
  -35.1271    6.1527  -41.1284 C   0  0  0  0  0  0  0  0  0  0  0  0
  -35.3671    5.5034  -42.4242 N   0  0  0  0  0  0  0  0  0  0  0  0
  -36.5471    4.6295  -42.3647 C   0  0  0  0  0  0  0  0  0  0  0  0
  -36.8097    4.0359  -43.7508 C   0  0  0  0  0  0  0  0  0  0  0  0
  -35.6243    3.2869  -44.1923 N   0  0  0  0  0  0  0  0  0  0  0  0
  -35.8644    2.6378  -45.4880 C   0  0  0  0  0  0  0  0  0  0  0  0
  -37.1478    1.8083  -45.4129 C   0  0  0  0  0  0  0  0  0  0  0  0
  -37.2217    0.8725  -46.6210 C   0  0  0  0  0  0  0  0  0  0  0  0
  -37.1455    0.9806  -44.1260 C   0  0  0  0  0  0  0  0  0  0  0  0
  -38.3415    2.7282  -45.4162 C   0  0  0  0  0  0  0  0  0  0  0  0
  -38.2182    3.8760  -45.7707 O   0  0  0  0  0  0  0  0  0  0  0  0
  -34.4444    4.1610  -44.2517 C   0  0  0  0  0  0  0  0  0  0  0  0
  -34.1823    4.7545  -42.8655 C   0  0  0  0  0  0  0  0  0  0  0  0
  -39.9241    2.1263  -44.9007 X   0  0  0  0  0  0  0  0  0  0  0  0
  1  2  1  0  0  0  0
  2  3  1  0  0  0  0
  2 13  1  0  0  0  0
  3  4  1  0  0  0  0
  4  5  1  0  0  0  0
  5  6  1  0  0  0  0
  5 12  1  0  0  0  0
  6  7  1  0  0  0  0
  7  8  1  0  0  0  0
  7  9  1  0  0  0  0
  7 10  1  0  0  0  0
 10 11  2  0  0  0  0
 10 14  1  0  0  0  0
 12 13  1  0  0  0  0
M  END
> <Index>
11751

> <PropertyFieldDistance>
nan

$$$$
15561116
BBcorina  12272117083D 1   1.00000     0.00000 
CORINA 4.3.0 0026  30.10.2019
 10 10  0  0  0  0  0  0  0  0999 V2000
  -33.1737    4.3915  -43.2891 C   0  0  0  0  0  0  0  0  0  0  0  0
  -34.5403    3.7045  -43.2529 C   0  0  0  0  0  0  0  0  0  0  0  0
  -35.2474    3.8978  -44.5970 C   0  0  0  0  0  0  0  0  0  0  0  0
  -36.6400    3.2764  -44.5469 C   0  0  0  0  0  0  0  0  0  0  0  0
  -36.5511    1.7535  -44.5170 C   0  0  0  0  0  0  0  0  0  0  0  0
  -36.0094    1.2882  -43.1628 C   0  0  0  0  0  0  0  0  0  0  0  0
  -34.3197    1.9250  -42.9563 S   0  0  0  0  0  0  0  0  0  0  0  0
  -37.3533    3.7562  -43.3091 C   0  0  0  0  0  0  0  0  0  0  0  0
  -36.9893    4.7659  -42.7557 O   0  0  0  0  0  0  0  0  0  0  0  0
  -38.7245    2.8398  -42.6665 X   0  0  0  0  0  0  0  0  0  0  0  0
  1  2  1  0  0  0  0
  2  3  1  0  0  0  0
  2  7  1  0  0  0  0
  3  4  1  0  0  0  0
  4  5  1  0  0  0  0
  4  8  1  0  0  0  0
  5  6  1  0  0  0  0
  6  7  1  0  0  0  0
  8  9  2  0  0  0  0
  8 10  1  0  0  0  0
M  END
> <Index>
11764

> <PropertyFieldDistance>
nan

$$$$
11399972
BBcorina  12272117083D 1   1.00000     0.00000 
CORINA 4.3.0 0026  30.10.2019
 10 10  0  0  0  0  0  0  0  0999 V2000
  -37.5558    2.0819  -44.5091 C   0  0  0  0  0  0  0  0  0  0  0  0
  -36.1204    2.6114  -44.5200 C   0  0  0  0  0  0  0  0  0  0  0  0
  -36.1412    4.1413  -44.5116 C   0  0  0  0  0  0  0  0  0  0  0  0
  -34.7058    4.6708  -44.5224 C   0  0  0  0  0  0  0  0  0  0  0  0
  -33.9658    4.1640  -43.2829 C   0  0  0  0  0  0  0  0  0  0  0  0
  -33.9450    2.6342  -43.2913 C   0  0  0  0  0  0  0  0  0  0  0  0
  -35.3804    2.1046  -43.2805 C   0  0  0  0  0  0  0  0  0  0  0  0
  -36.0858    2.5906  -42.0406 C   0  0  0  0  0  0  0  0  0  0  0  0
  -37.0780    3.2720  -42.1382 O   0  0  0  0  0  0  0  0  0  0  0  0
  -35.4600    2.1626  -40.4412 X   0  0  0  0  0  0  0  0  0  0  0  0
  1  2  1  0  0  0  0
  2  3  1  0  0  0  0
  2  7  1  0  0  0  0
  3  4  1  0  0  0  0
  4  5  1  0  0  0  0
  5  6  1  0  0  0  0
  6  7  1  0  0  0  0
  7  8  1  0  0  0  0
  8  9  2  0  0  0  0
  8 10  1  0  0  0  0
M  END
> <Index>
11802

> <PropertyFieldDistance>
nan

$$$$
5727222
BBcorina  12272117083D 1   1.00000     0.00000 
CORINA 4.3.0 0026  30.10.2019
 10 10  0  0  0  0  0  0  0  0999 V2000
  -35.3829    4.3608  -45.9590 C   0  0  0  0  0  0  0  0  0  0  0  0
  -35.2840    3.4756  -44.7150 C   0  0  0  0  0  0  0  0  0  0  0  0
  -36.4334    2.4656  -44.7151 C   0  0  0  0  0  0  0  0  0  0  0  0
  -36.3345    1.5804  -43.4711 C   0  0  0  0  0  0  0  0  0  0  0  0
  -36.4215    2.4520  -42.2166 C   0  0  0  0  0  0  0  0  0  0  0  0
  -35.2722    3.4620  -42.2166 C   0  0  0  0  0  0  0  0  0  0  0  0
  -35.3711    4.3472  -43.4606 C   0  0  0  0  0  0  0  0  0  0  0  0
  -33.9570    2.7263  -42.2268 C   0  0  0  0  0  0  0  0  0  0  0  0
  -33.9406    1.5188  -42.2335 O   0  0  0  0  0  0  0  0  0  0  0  0
  -32.4363    3.6321  -42.2365 X   0  0  0  0  0  0  0  0  0  0  0  0
  1  2  1  0  0  0  0
  2  3  1  0  0  0  0
  2  7  1  0  0  0  0
  3  4  1  0  0  0  0
  4  5  1  0  0  0  0
  5  6  1  0  0  0  0
  6  7  1  0  0  0  0
  6  8  1  0  0  0  0
  8  9  2  0  0  0  0
  8 10  1  0  0  0  0
M  END
> <Index>
11803

> <PropertyFieldDistance>
nan

$$$$
9142076
BBcorina  12272117083D 1   1.00000     0.00000 
CORINA 4.3.0 0026  30.10.2019
  9  9  0  0  0  0  0  0  0  0999 V2000
  -37.7764    4.3934  -43.7106 C   0  0  0  0  0  0  0  0  0  0  0  0
  -37.8322    5.6054  -43.7038 O   0  0  0  0  0  0  0  0  0  0  0  0
  -36.4774    3.7213  -43.7203 C   0  0  0  0  0  0  0  0  0  0  0  0
  -35.3893    4.4693  -43.7267 C   0  0  0  0  0  0  0  0  0  0  0  0
  -33.9955    3.9127  -43.7521 C   0  0  0  0  0  0  0  0  0  0  0  0
  -34.0098    2.4381  -43.3442 C   0  0  0  0  0  0  0  0  0  0  0  0
  -35.0816    1.7149  -44.1688 C   0  0  0  0  0  0  0  0  0  0  0  0
  -36.4570    2.2204  -43.7286 C   0  0  0  0  0  0  0  0  0  0  0  0
  -39.2668    3.4387  -43.7089 X   0  0  0  0  0  0  0  0  0  0  0  0
  1  2  2  0  0  0  0
  1  3  1  0  0  0  0
  1  9  1  0  0  0  0
  3  4  2  0  0  0  0
  3  8  1  0  0  0  0
  4  5  1  0  0  0  0
  5  6  1  0  0  0  0
  6  7  1  0  0  0  0
  7  8  1  0  0  0  0
M  END
> <Index>
11817

> <PropertyFieldDistance>
nan

$$$$
14869292
BBcorina  12272117083D 1   1.00000     0.00000 
CORINA 4.3.0 0026  30.10.2019
 13 14  0  0  0  0  0  0  0  0999 V2000
  -35.6688    1.6136  -45.1987 C   0  0  0  0  0  0  0  0  0  0  0  0
  -35.1589    2.0419  -46.2061 O   0  0  0  0  0  0  0  0  0  0  0  0
  -36.3269    2.5588  -44.2267 C   0  0  0  0  0  0  0  0  0  0  0  0
  -36.2087    3.9353  -44.7260 N   0  0  0  0  0  0  0  0  0  0  0  0
  -37.0372    4.8557  -43.9344 C   0  0  0  0  0  0  0  0  0  0  0  0
  -36.6993    4.7037  -42.4458 C   0  0  0  0  0  0  0  0  0  0  0  0
  -35.2436    4.7770  -42.2962 N   0  0  0  0  0  0  0  0  0  0  0  0
  -34.5147    4.9932  -41.1680 C   0  0  0  0  0  0  0  0  0  0  0  0
  -33.2170    4.9765  -41.5372 C   0  0  0  0  0  0  0  0  0  0  0  0
  -33.1625    4.7541  -42.8611 N   0  0  0  0  0  0  0  0  0  0  0  0
  -34.3700    4.6321  -43.3238 C   0  0  0  0  0  0  0  0  0  0  0  0
  -34.8013    4.3703  -44.7472 C   0  0  0  0  0  0  0  0  0  0  0  0
  -35.6499   -0.1250  -44.8674 X   0  0  0  0  0  0  0  0  0  0  0  0
  1  2  2  0  0  0  0
  1  3  1  0  0  0  0
  1 13  1  0  0  0  0
  3  4  1  0  0  0  0
  4  5  1  0  0  0  0
  4 12  1  0  0  0  0
  5  6  1  0  0  0  0
  6  7  1  0  0  0  0
  7  8  1  0  0  0  0
  7 11  1  0  0  0  0
  8  9  2  0  0  0  0
  9 10  1  0  0  0  0
 10 11  2  0  0  0  0
 11 12  1  0  0  0  0
M  END
> <Index>
11829

> <PropertyFieldDistance>
nan

$$$$
16784430
BBcorina  12272117083D 1   1.00000     0.00000 
CORINA 4.3.0 0026  30.10.2019
 12 12  0  0  0  0  0  0  0  0999 V2000
  -35.7067    1.8923  -46.0007 C   0  0  0  0  0  0  0  0  0  0  0  0
  -36.5787    2.2849  -44.8063 C   0  0  0  0  0  0  0  0  0  0  0  0
  -36.1630    3.6029  -44.3086 N   0  0  0  0  0  0  0  0  0  0  0  0
  -36.9801    4.0132  -43.1595 C   0  0  0  0  0  0  0  0  0  0  0  0
  -36.6187    5.4458  -42.7608 C   0  0  0  0  0  0  0  0  0  0  0  0
  -35.1315    5.5109  -42.4022 C   0  0  0  0  0  0  0  0  0  0  0  0
  -34.7745    6.8571  -42.0826 O   0  0  0  0  0  0  0  0  0  0  0  0
  -34.3048    5.0327  -43.5992 C   0  0  0  0  0  0  0  0  0  0  0  0
  -34.7333    3.6121  -43.9739 C   0  0  0  0  0  0  0  0  0  0  0  0
  -36.4207    1.2617  -43.7112 C   0  0  0  0  0  0  0  0  0  0  0  0
  -36.0047    1.5960  -42.6280 O   0  0  0  0  0  0  0  0  0  0  0  0
  -36.8449   -0.4301  -44.0128 X   0  0  0  0  0  0  0  0  0  0  0  0
  1  2  1  0  0  0  0
  2  3  1  0  0  0  0
  2 10  1  0  0  0  0
  3  4  1  0  0  0  0
  3  9  1  0  0  0  0
  4  5  1  0  0  0  0
  5  6  1  0  0  0  0
  6  7  1  0  0  0  0
  6  8  1  0  0  0  0
  8  9  1  0  0  0  0
 10 11  2  0  0  0  0
 10 12  1  0  0  0  0
M  END
> <Index>
11835

> <PropertyFieldDistance>
nan

$$$$
12422046
BBcorina  12272117083D 1   1.00000     0.00000 
CORINA 4.3.0 0026  30.10.2019
 11 13  0  0  0  0  0  0  0  0999 V2000
  -33.4588    2.9392  -43.5830 C   0  0  0  0  0  0  0  0  0  0  0  0
  -33.3053    2.1331  -42.6970 O   0  0  0  0  0  0  0  0  0  0  0  0
  -34.5524    3.9712  -43.4817 C   0  0  0  0  0  0  0  0  0  0  0  0
  -35.3387    4.1007  -44.8289 C   0  0  0  0  0  0  0  0  0  0  0  0
  -36.8033    3.6983  -44.4763 C   0  0  0  0  0  0  0  0  0  0  0  0
  -36.9111    4.2505  -43.0111 C   0  0  0  0  0  0  0  0  0  0  0  0
  -35.6391    3.5132  -42.4616 C   0  0  0  0  0  0  0  0  0  0  0  0
  -35.9605    2.0425  -42.8677 C   0  0  0  0  0  0  0  0  0  0  0  0
  -35.3420    1.5255  -44.1681 C   0  0  0  0  0  0  0  0  0  0  0  0
  -36.7315    2.1650  -44.2019 C   0  0  0  0  0  0  0  0  0  0  0  0
  -32.3995    2.9087  -45.0007 X   0  0  0  0  0  0  0  0  0  0  0  0
  1  2  2  0  0  0  0
  1  3  1  0  0  0  0
  1 11  1  0  0  0  0
  3  4  1  0  0  0  0
  3  7  1  0  0  0  0
  4  5  1  0  0  0  0
  5  6  1  0  0  0  0
  5 10  1  0  0  0  0
  6  7  1  0  0  0  0
  7  8  1  0  0  0  0
  8  9  1  0  0  0  0
  8 10  1  0  0  0  0
  9 10  1  0  0  0  0
M  END
> <Index>
11839

> <PropertyFieldDistance>
nan

$$$$
12713990
BBcorina  12272117083D 1   1.00000     0.00000 
CORINA 4.3.0 0026  30.10.2019
 15 16  0  0  0  0  0  0  0  0999 V2000
  -36.3354    2.3075  -44.8787 C   0  0  0  0  0  0  0  0  0  0  0  0
  -35.9453    3.3416  -43.9110 N   0  0  0  0  0  0  0  0  0  0  0  0
  -37.0432    4.2897  -43.6828 C   0  0  0  0  0  0  0  0  0  0  0  0
  -36.6554    5.2625  -42.5667 C   0  0  0  0  0  0  0  0  0  0  0  0
  -35.3834    6.0133  -42.9700 C   0  0  0  0  0  0  0  0  0  0  0  0
  -34.2691    5.0007  -43.2489 C   0  0  0  0  0  0  0  0  0  0  0  0
  -34.7262    4.0356  -44.3451 C   0  0  0  0  0  0  0  0  0  0  0  0
  -34.9627    6.9292  -41.8498 C   0  0  0  0  0  0  0  0  0  0  0  0
  -35.2639    8.1912  -41.7562 N   0  0  0  0  0  0  0  0  0  0  0  0
  -34.7173    8.6909  -40.6160 C   0  0  0  0  0  0  0  0  0  0  0  0
  -34.0416    7.6593  -40.0002 C   0  0  0  0  0  0  0  0  0  0  0  0
  -34.2041    6.5679  -40.7816 N   0  0  0  0  0  0  0  0  0  0  0  0
  -34.8220   10.0707  -40.1346 C   0  0  0  0  0  0  0  0  0  0  0  0
  -34.2809   10.3942  -39.0978 O   0  0  0  0  0  0  0  0  0  0  0  0
  -35.7378   11.2657  -41.0652 X   0  0  0  0  0  0  0  0  0  0  0  0
  1  2  1  0  0  0  0
  2  3  1  0  0  0  0
  2  7  1  0  0  0  0
  3  4  1  0  0  0  0
  4  5  1  0  0  0  0
  5  6  1  0  0  0  0
  5  8  1  0  0  0  0
  6  7  1  0  0  0  0
  8  9  2  0  0  0  0
  8 12  1  0  0  0  0
  9 10  1  0  0  0  0
 10 11  2  0  0  0  0
 10 13  1  0  0  0  0
 11 12  1  0  0  0  0
 13 14  2  0  0  0  0
 13 15  1  0  0  0  0
M  END
> <Index>
11857

> <PropertyFieldDistance>
nan

$$$$
13435842
BBcorina  12272117083D 1   1.00000     0.00000 
CORINA 4.3.0 0026  30.10.2019
 11 12  0  0  0  0  0  0  0  0999 V2000
  -35.1269    5.1921  -45.1264 C   0  0  0  0  0  0  0  0  0  0  0  0
  -35.3351    3.7038  -44.8391 C   0  0  0  0  0  0  0  0  0  0  0  0
  -36.7770    3.4845  -44.4322 C   0  0  0  0  0  0  0  0  0  0  0  0
  -37.0037    2.1044  -43.8337 C   0  0  0  0  0  0  0  0  0  0  0  0
  -36.7834    1.9918  -42.3426 C   0  0  0  0  0  0  0  0  0  0  0  0
  -35.8361    1.2878  -43.3045 C   0  0  0  0  0  0  0  0  0  0  0  0
  -34.4171    1.7859  -43.4831 C   0  0  0  0  0  0  0  0  0  0  0  0
  -34.3520    3.2704  -43.7742 C   0  0  0  0  0  0  0  0  0  0  0  0
  -34.6456    4.0277  -42.5048 C   0  0  0  0  0  0  0  0  0  0  0  0
  -35.5930    4.7746  -42.4527 O   0  0  0  0  0  0  0  0  0  0  0  0
  -33.6017    3.8224  -41.0902 X   0  0  0  0  0  0  0  0  0  0  0  0
  1  2  1  0  0  0  0
  2  3  1  0  0  0  0
  2  8  1  0  0  0  0
  3  4  1  0  0  0  0
  4  5  1  0  0  0  0
  4  6  1  0  0  0  0
  5  6  1  0  0  0  0
  6  7  1  0  0  0  0
  7  8  1  0  0  0  0
  8  9  1  0  0  0  0
  9 10  2  0  0  0  0
  9 11  1  0  0  0  0
M  END
> <Index>
11881

> <PropertyFieldDistance>
nan

$$$$
12297872
BBcorina  12272117083D 1   1.00000     0.00000 
CORINA 4.3.0 0026  30.10.2019
 14 15  0  0  0  0  0  0  0  0999 V2000
  -36.4903    3.0074  -45.1544 C   0  0  0  0  0  0  0  0  0  0  0  0
  -35.8612    3.1523  -43.8349 N   0  0  0  0  0  0  0  0  0  0  0  0
  -36.7593    3.8348  -42.8961 C   0  0  0  0  0  0  0  0  0  0  0  0
  -36.7947    5.3271  -43.2502 C   0  0  0  0  0  0  0  0  0  0  0  0
  -35.4785    5.8560  -43.0608 O   0  0  0  0  0  0  0  0  0  0  0  0
  -34.4476    5.1230  -43.5595 C   0  0  0  0  0  0  0  0  0  0  0  0
  -33.1996    5.7263  -43.6800 C   0  0  0  0  0  0  0  0  0  0  0  0
  -32.1290    5.0201  -44.1790 C   0  0  0  0  0  0  0  0  0  0  0  0
  -32.2924    3.6828  -44.5590 C   0  0  0  0  0  0  0  0  0  0  0  0
  -33.5462    3.0744  -44.4357 C   0  0  0  0  0  0  0  0  0  0  0  0
  -34.6216    3.7930  -43.9380 C   0  0  0  0  0  0  0  0  0  0  0  0
  -31.1523    2.9215  -45.0856 C   0  0  0  0  0  0  0  0  0  0  0  0
  -31.2965    1.7629  -45.4141 O   0  0  0  0  0  0  0  0  0  0  0  0
  -29.5677    3.6948  -45.2407 X   0  0  0  0  0  0  0  0  0  0  0  0
  1  2  1  0  0  0  0
  2  3  1  0  0  0  0
  2 11  1  0  0  0  0
  3  4  1  0  0  0  0
  4  5  1  0  0  0  0
  5  6  1  0  0  0  0
  6  7  2  0  0  0  0
  6 11  1  0  0  0  0
  7  8  1  0  0  0  0
  8  9  2  0  0  0  0
  9 10  1  0  0  0  0
  9 12  1  0  0  0  0
 10 11  2  0  0  0  0
 12 13  2  0  0  0  0
 12 14  1  0  0  0  0
M  END
> <Index>
11930

> <PropertyFieldDistance>
nan

$$$$
12297874
BBcorina  12272117083D 1   1.00000     0.00000 
CORINA 4.3.0 0026  30.10.2019
 13 14  0  0  0  0  0  0  0  0999 V2000
  -34.9355    5.9929  -40.9819 C   0  0  0  0  0  0  0  0  0  0  0  0
  -35.2751    4.9341  -42.0329 C   0  0  0  0  0  0  0  0  0  0  0  0
  -36.6297    5.2604  -42.6682 C   0  0  0  0  0  0  0  0  0  0  0  0
  -37.0845    4.0829  -43.5369 C   0  0  0  0  0  0  0  0  0  0  0  0
  -35.9903    3.7114  -44.4393 N   0  0  0  0  0  0  0  0  0  0  0  0
  -36.0709    2.9655  -45.5582 C   0  0  0  0  0  0  0  0  0  0  0  0
  -34.7931    2.8877  -46.0731 C   0  0  0  0  0  0  0  0  0  0  0  0
  -33.9784    3.5928  -45.2422 N   0  0  0  0  0  0  0  0  0  0  0  0
  -34.6882    4.0811  -44.2720 C   0  0  0  0  0  0  0  0  0  0  0  0
  -34.1945    4.9278  -43.1213 C   0  0  0  0  0  0  0  0  0  0  0  0
  -34.3886    2.1771  -47.2887 C   0  0  0  0  0  0  0  0  0  0  0  0
  -35.2158    1.5813  -47.9470 O   0  0  0  0  0  0  0  0  0  0  0  0
  -32.6932    2.1876  -47.7972 X   0  0  0  0  0  0  0  0  0  0  0  0
  1  2  1  0  0  0  0
  2  3  1  0  0  0  0
  2 10  1  0  0  0  0
  3  4  1  0  0  0  0
  4  5  1  0  0  0  0
  5  6  1  0  0  0  0
  5  9  1  0  0  0  0
  6  7  2  0  0  0  0
  7  8  1  0  0  0  0
  7 11  1  0  0  0  0
  8  9  2  0  0  0  0
  9 10  1  0  0  0  0
 11 12  2  0  0  0  0
 11 13  1  0  0  0  0
M  END
> <Index>
11931

> <PropertyFieldDistance>
nan

$$$$
12298972
BBcorina  12272117083D 1   1.00000     0.00000 
CORINA 4.3.0 0026  30.10.2019
 10 11  0  0  0  0  0  0  0  0999 V2000
  -37.4405    2.7271  -42.8372 C   0  0  0  0  0  0  0  0  0  0  0  0
  -37.7642    1.6431  -43.2596 O   0  0  0  0  0  0  0  0  0  0  0  0
  -36.4791    3.5843  -43.6196 C   0  0  0  0  0  0  0  0  0  0  0  0
  -36.7226    3.4068  -45.1338 C   0  0  0  0  0  0  0  0  0  0  0  0
  -35.3043    3.4535  -45.7554 C   0  0  0  0  0  0  0  0  0  0  0  0
  -34.4455    2.6978  -44.7096 C   0  0  0  0  0  0  0  0  0  0  0  0
  -35.0329    3.1314  -43.3552 C   0  0  0  0  0  0  0  0  0  0  0  0
  -34.6544    2.4025  -42.0696 C   0  0  0  0  0  0  0  0  0  0  0  0
  -34.1637    3.8316  -42.3151 C   0  0  0  0  0  0  0  0  0  0  0  0
  -38.0951    3.3092  -41.2992 X   0  0  0  0  0  0  0  0  0  0  0  0
  1  2  2  0  0  0  0
  1  3  1  0  0  0  0
  1 10  1  0  0  0  0
  3  4  1  0  0  0  0
  3  7  1  0  0  0  0
  4  5  1  0  0  0  0
  5  6  1  0  0  0  0
  6  7  1  0  0  0  0
  7  8  1  0  0  0  0
  7  9  1  0  0  0  0
  8  9  1  0  0  0  0
M  END
> <Index>
11974

> <PropertyFieldDistance>
nan

$$$$
16519946
BBcorina  12272117083D 1   1.00000     0.00000 
CORINA 4.3.0 0026  30.10.2019
 12 12  0  0  0  0  0  0  0  0999 V2000
  -36.2782    3.7296  -46.6289 F   0  0  0  0  0  0  0  0  0  0  0  0
  -35.6882    3.2382  -45.4594 C   0  0  0  0  0  0  0  0  0  0  0  0
  -35.2881    1.9155  -45.6779 F   0  0  0  0  0  0  0  0  0  0  0  0
  -34.5142    4.0409  -45.1506 C   0  0  0  0  0  0  0  0  0  0  0  0
  -33.7604    3.5261  -43.9073 C   0  0  0  0  0  0  0  0  0  0  0  0
  -34.4724    4.0152  -42.6752 C   0  0  0  0  0  0  0  0  0  0  0  0
  -35.4884    2.9869  -42.1365 C   0  0  0  0  0  0  0  0  0  0  0  0
  -36.2975    2.3001  -43.2533 C   0  0  0  0  0  0  0  0  0  0  0  0
  -36.7326    3.2631  -44.3246 C   0  0  0  0  0  0  0  0  0  0  0  0
  -37.5200    1.6623  -42.6453 C   0  0  0  0  0  0  0  0  0  0  0  0
  -37.7462    1.7932  -41.4663 O   0  0  0  0  0  0  0  0  0  0  0  0
  -38.6242    0.7212  -43.6592 X   0  0  0  0  0  0  0  0  0  0  0  0
  1  2  1  0  0  0  0
  2  3  1  0  0  0  0
  2  4  1  0  0  0  0
  2  9  1  0  0  0  0
  4  5  1  0  0  0  0
  5  6  1  0  0  0  0
  6  7  1  0  0  0  0
  7  8  1  0  0  0  0
  8  9  1  0  0  0  0
  8 10  1  0  0  0  0
 10 11  2  0  0  0  0
 10 12  1  0  0  0  0
M  END
> <Index>
12005

> <PropertyFieldDistance>
nan

$$$$
13206634
BBcorina  12272117083D 1   1.00000     0.00000 
CORINA 4.3.0 0026  30.10.2019
 16 17  0  0  0  0  0  0  0  0999 V2000
  -34.6957    6.1511  -41.2749 C   0  0  0  0  0  0  0  0  0  0  0  0
  -35.2270    5.4981  -42.4788 N   0  0  0  0  0  0  0  0  0  0  0  0
  -36.5409    4.8952  -42.2148 C   0  0  0  0  0  0  0  0  0  0  0  0
  -37.0939    4.2962  -43.5101 C   0  0  0  0  0  0  0  0  0  0  0  0
  -36.1512    3.2931  -44.0245 N   0  0  0  0  0  0  0  0  0  0  0  0
  -36.6824    2.6402  -45.2284 C   0  0  0  0  0  0  0  0  0  0  0  0
  -35.6016    1.8050  -45.8652 C   0  0  0  0  0  0  0  0  0  0  0  0
  -35.3659    0.5182  -45.5740 C   0  0  0  0  0  0  0  0  0  0  0  0
  -34.3357   -0.0585  -46.2728 C   0  0  0  0  0  0  0  0  0  0  0  0
  -33.7228    0.8052  -47.1449 C   0  0  0  0  0  0  0  0  0  0  0  0
  -34.5109    2.3740  -47.0473 S   0  0  0  0  0  0  0  0  0  0  0  0
  -32.6338    0.4857  -47.9855 C   0  0  0  0  0  0  0  0  0  0  0  0
  -32.1667    1.3310  -48.7218 O   0  0  0  0  0  0  0  0  0  0  0  0
  -34.8374    3.8961  -44.2886 C   0  0  0  0  0  0  0  0  0  0  0  0
  -34.2842    4.4950  -42.9934 C   0  0  0  0  0  0  0  0  0  0  0  0
  -31.9497   -1.1466  -47.9659 X   0  0  0  0  0  0  0  0  0  0  0  0
  1  2  1  0  0  0  0
  2  3  1  0  0  0  0
  2 15  1  0  0  0  0
  3  4  1  0  0  0  0
  4  5  1  0  0  0  0
  5  6  1  0  0  0  0
  5 14  1  0  0  0  0
  6  7  1  0  0  0  0
  7  8  2  0  0  0  0
  7 11  1  0  0  0  0
  8  9  1  0  0  0  0
  9 10  2  0  0  0  0
 10 11  1  0  0  0  0
 10 12  1  0  0  0  0
 12 13  2  0  0  0  0
 12 16  1  0  0  0  0
 14 15  1  0  0  0  0
M  END
> <Index>
12013

> <PropertyFieldDistance>
nan

$$$$
2729382
BBcorina  12272117083D 1   1.00000     0.00000 
CORINA 4.3.0 0026  30.10.2019
 10 10  0  0  0  0  0  0  0  0999 V2000
  -34.3017    3.5741  -46.0904 C   0  0  0  0  0  0  0  0  0  0  0  0
  -33.4045    4.3820  -46.1156 O   0  0  0  0  0  0  0  0  0  0  0  0
  -35.1704    3.4507  -44.8651 C   0  0  0  0  0  0  0  0  0  0  0  0
  -34.7406    4.5174  -43.8399 C   0  0  0  0  0  0  0  0  0  0  0  0
  -35.2494    4.2177  -42.4169 C   0  0  0  0  0  0  0  0  0  0  0  0
  -36.6695    3.7204  -42.4060 C   0  0  0  0  0  0  0  0  0  0  0  0
  -36.6486    2.1781  -42.4145 C   0  0  0  0  0  0  0  0  0  0  0  0
  -36.4199    1.6337  -43.7447 C   0  0  0  0  0  0  0  0  0  0  0  0
  -35.0528    2.0516  -44.3239 C   0  0  0  0  0  0  0  0  0  0  0  0
  -34.5965    2.5349  -47.4925 X   0  0  0  0  0  0  0  0  0  0  0  0
  1  2  2  0  0  0  0
  1  3  1  0  0  0  0
  1 10  1  0  0  0  0
  3  4  1  0  0  0  0
  3  9  1  0  0  0  0
  4  5  1  0  0  0  0
  5  6  1  0  0  0  0
  6  7  1  0  0  0  0
  7  8  1  0  0  0  0
  8  9  1  0  0  0  0
M  END
> <Index>
12059

> <PropertyFieldDistance>
nan

$$$$
5534664
BBcorina  12272117083D 1   1.00000     0.00000 
CORINA 4.3.0 0026  30.10.2019
 10 10  0  0  0  0  0  0  0  0999 V2000
  -36.3354    2.3075  -44.8787 C   0  0  0  0  0  0  0  0  0  0  0  0
  -35.9453    3.3416  -43.9110 N   0  0  0  0  0  0  0  0  0  0  0  0
  -37.0432    4.2897  -43.6828 C   0  0  0  0  0  0  0  0  0  0  0  0
  -36.6554    5.2625  -42.5667 C   0  0  0  0  0  0  0  0  0  0  0  0
  -35.3834    6.0133  -42.9700 C   0  0  0  0  0  0  0  0  0  0  0  0
  -34.2691    5.0007  -43.2489 C   0  0  0  0  0  0  0  0  0  0  0  0
  -34.7262    4.0356  -44.3451 C   0  0  0  0  0  0  0  0  0  0  0  0
  -34.9627    6.9292  -41.8498 C   0  0  0  0  0  0  0  0  0  0  0  0
  -35.6124    6.9775  -40.8330 O   0  0  0  0  0  0  0  0  0  0  0  0
  -33.5162    7.9344  -42.0243 X   0  0  0  0  0  0  0  0  0  0  0  0
  1  2  1  0  0  0  0
  2  3  1  0  0  0  0
  2  7  1  0  0  0  0
  3  4  1  0  0  0  0
  4  5  1  0  0  0  0
  5  6  1  0  0  0  0
  5  8  1  0  0  0  0
  6  7  1  0  0  0  0
  8  9  2  0  0  0  0
  8 10  1  0  0  0  0
M  END
> <Index>
12067

> <PropertyFieldDistance>
nan

$$$$
8741180
BBcorina  12272117083D 1   1.00000     0.00000 
CORINA 4.3.0 0026  30.10.2019
 16 17  0  0  0  0  0  0  0  0999 V2000
  -34.6958    6.1511  -41.2749 C   0  0  0  0  0  0  0  0  0  0  0  0
  -35.2270    5.4982  -42.4788 N   0  0  0  0  0  0  0  0  0  0  0  0
  -36.5409    4.8952  -42.2147 C   0  0  0  0  0  0  0  0  0  0  0  0
  -37.0940    4.2962  -43.5101 C   0  0  0  0  0  0  0  0  0  0  0  0
  -36.1512    3.2931  -44.0245 N   0  0  0  0  0  0  0  0  0  0  0  0
  -36.6824    2.6401  -45.2284 C   0  0  0  0  0  0  0  0  0  0  0  0
  -35.6016    1.8050  -45.8652 C   0  0  0  0  0  0  0  0  0  0  0  0
  -35.3333    0.5033  -45.6131 C   0  0  0  0  0  0  0  0  0  0  0  0
  -34.2320    0.2090  -46.4671 C   0  0  0  0  0  0  0  0  0  0  0  0
  -33.9731    1.3165  -47.1204 N   0  0  0  0  0  0  0  0  0  0  0  0
  -34.7245    2.2062  -46.7957 O   0  0  0  0  0  0  0  0  0  0  0  0
  -33.5279   -1.0838  -46.5956 C   0  0  0  0  0  0  0  0  0  0  0  0
  -33.8740   -2.0292  -45.9277 O   0  0  0  0  0  0  0  0  0  0  0  0
  -34.8374    3.8961  -44.2886 C   0  0  0  0  0  0  0  0  0  0  0  0
  -34.2842    4.4950  -42.9933 C   0  0  0  0  0  0  0  0  0  0  0  0
  -32.1822   -1.2492  -47.7334 X   0  0  0  0  0  0  0  0  0  0  0  0
  1  2  1  0  0  0  0
  2  3  1  0  0  0  0
  2 15  1  0  0  0  0
  3  4  1  0  0  0  0
  4  5  1  0  0  0  0
  5  6  1  0  0  0  0
  5 14  1  0  0  0  0
  6  7  1  0  0  0  0
  7  8  2  0  0  0  0
  7 11  1  0  0  0  0
  8  9  1  0  0  0  0
  9 10  2  0  0  0  0
  9 12  1  0  0  0  0
 10 11  1  0  0  0  0
 12 13  2  0  0  0  0
 12 16  1  0  0  0  0
 14 15  1  0  0  0  0
M  END
> <Index>
12084

> <PropertyFieldDistance>
nan

$$$$
16657698
BBcorina  12272117083D 1   1.00000     0.00000 
CORINA 4.3.0 0026  30.10.2019
 13 14  0  0  0  0  0  0  0  0999 V2000
  -36.3023    2.3359  -44.9671 C   0  0  0  0  0  0  0  0  0  0  0  0
  -36.1493    3.3934  -43.9648 N   0  0  0  0  0  0  0  0  0  0  0  0
  -35.0246    3.6036  -43.1582 N   0  0  0  0  0  0  0  0  0  0  0  0
  -35.2285    4.6258  -42.3764 C   0  0  0  0  0  0  0  0  0  0  0  0
  -36.5145    5.1418  -42.6368 C   0  0  0  0  0  0  0  0  0  0  0  0
  -37.2650    6.2190  -42.1096 C   0  0  0  0  0  0  0  0  0  0  0  0
  -38.5435    6.4359  -42.6275 C   0  0  0  0  0  0  0  0  0  0  0  0
  -39.0228    5.6005  -43.6241 C   0  0  0  0  0  0  0  0  0  0  0  0
  -38.3046    4.6058  -44.0969 N   0  0  0  0  0  0  0  0  0  0  0  0
  -37.0850    4.3448  -43.6501 C   0  0  0  0  0  0  0  0  0  0  0  0
  -36.7165    7.0820  -41.0513 C   0  0  0  0  0  0  0  0  0  0  0  0
  -35.6036    6.8754  -40.6166 O   0  0  0  0  0  0  0  0  0  0  0  0
  -37.6813    8.4216  -40.4131 X   0  0  0  0  0  0  0  0  0  0  0  0
  1  2  1  0  0  0  0
  2  3  1  0  0  0  0
  2 10  1  0  0  0  0
  3  4  2  0  0  0  0
  4  5  1  0  0  0  0
  5  6  2  0  0  0  0
  5 10  1  0  0  0  0
  6  7  1  0  0  0  0
  6 11  1  0  0  0  0
  7  8  2  0  0  0  0
  8  9  1  0  0  0  0
  9 10  2  0  0  0  0
 11 12  2  0  0  0  0
 11 13  1  0  0  0  0
M  END
> <Index>
12121

> <PropertyFieldDistance>
nan

$$$$
12102988
BBcorina  12272117083D 1   1.00000     0.00000 
CORINA 4.3.0 0026  30.10.2019
 15 15  0  0  0  0  0  0  0  0999 V2000
  -36.6552    2.9861  -46.9109 F   0  0  0  0  0  0  0  0  0  0  0  0
  -36.9047    2.0356  -45.9152 C   0  0  0  0  0  0  0  0  0  0  0  0
  -36.8773    0.7543  -46.4762 F   0  0  0  0  0  0  0  0  0  0  0  0
  -38.1632    2.2708  -45.3509 F   0  0  0  0  0  0  0  0  0  0  0  0
  -35.8315    2.1402  -44.8297 C   0  0  0  0  0  0  0  0  0  0  0  0
  -35.7624    3.5238  -44.3412 N   0  0  0  0  0  0  0  0  0  0  0  0
  -36.8800    3.8185  -43.4353 C   0  0  0  0  0  0  0  0  0  0  0  0
  -36.8585    5.3026  -43.0626 C   0  0  0  0  0  0  0  0  0  0  0  0
  -35.5264    5.6343  -42.3845 C   0  0  0  0  0  0  0  0  0  0  0  0
  -35.4747    7.1293  -42.0626 C   0  0  0  0  0  0  0  0  0  0  0  0
  -34.2190    7.4330  -41.2868 C   0  0  0  0  0  0  0  0  0  0  0  0
  -33.4452    6.5454  -41.0188 O   0  0  0  0  0  0  0  0  0  0  0  0
  -34.3775    5.2731  -43.3300 C   0  0  0  0  0  0  0  0  0  0  0  0
  -34.4709    3.7899  -43.6951 C   0  0  0  0  0  0  0  0  0  0  0  0
  -33.8782    9.0906  -40.7683 X   0  0  0  0  0  0  0  0  0  0  0  0
  1  2  1  0  0  0  0
  2  3  1  0  0  0  0
  2  4  1  0  0  0  0
  2  5  1  0  0  0  0
  5  6  1  0  0  0  0
  6  7  1  0  0  0  0
  6 14  1  0  0  0  0
  7  8  1  0  0  0  0
  8  9  1  0  0  0  0
  9 10  1  0  0  0  0
  9 13  1  0  0  0  0
 10 11  1  0  0  0  0
 11 12  2  0  0  0  0
 11 15  1  0  0  0  0
 13 14  1  0  0  0  0
M  END
> <Index>
12175

> <PropertyFieldDistance>
nan

$$$$
12808090
BBcorina  12272117083D 1   1.00000     0.00000 
CORINA 4.3.0 0026  30.10.2019
 11 11  0  0  0  0  0  0  0  0999 V2000
  -36.3043    2.2550  -44.8707 C   0  0  0  0  0  0  0  0  0  0  0  0
  -35.9953    3.5037  -44.1697 N   0  0  0  0  0  0  0  0  0  0  0  0
  -37.1043    4.2636  -43.6069 C   0  0  0  0  0  0  0  0  0  0  0  0
  -36.5995    5.2384  -42.5422 C   0  0  0  0  0  0  0  0  0  0  0  0
  -35.4371    6.0480  -43.1293 C   0  0  0  0  0  0  0  0  0  0  0  0
  -34.2545    5.1031  -43.3566 C   0  0  0  0  0  0  0  0  0  0  0  0
  -33.2020    5.8062  -44.1745 C   0  0  0  0  0  0  0  0  0  0  0  0
  -32.8689    5.3568  -45.2447 O   0  0  0  0  0  0  0  0  0  0  0  0
  -34.7168    3.8739  -44.0870 C   0  0  0  0  0  0  0  0  0  0  0  0
  -33.8823    3.1817  -44.6305 O   0  0  0  0  0  0  0  0  0  0  0  0
  -32.4541    7.2908  -43.5666 X   0  0  0  0  0  0  0  0  0  0  0  0
  1  2  1  0  0  0  0
  2  3  1  0  0  0  0
  2  9  1  0  0  0  0
  3  4  1  0  0  0  0
  4  5  1  0  0  0  0
  5  6  1  0  0  0  0
  6  7  1  0  0  0  0
  6  9  1  0  0  0  0
  7  8  2  0  0  0  0
  7 11  1  0  0  0  0
  9 10  2  0  0  0  0
M  END
> <Index>
12252

> <PropertyFieldDistance>
nan

$$$$
15344828
BBcorina  12272117083D 1   1.00000     0.00000 
CORINA 4.3.0 0026  30.10.2019
 13 13  0  0  0  0  0  0  0  0999 V2000
  -38.3732    3.6635  -43.1366 C   0  0  0  0  0  0  0  0  0  0  0  0
  -37.0947    4.3727  -43.5877 C   0  0  0  0  0  0  0  0  0  0  0  0
  -36.5217    5.1812  -42.4215 C   0  0  0  0  0  0  0  0  0  0  0  0
  -35.2318    5.8729  -42.8713 C   0  0  0  0  0  0  0  0  0  0  0  0
  -34.2408    4.8156  -43.3659 C   0  0  0  0  0  0  0  0  0  0  0  0
  -34.8799    4.0176  -44.5047 C   0  0  0  0  0  0  0  0  0  0  0  0
  -35.2165    4.9607  -45.6616 C   0  0  0  0  0  0  0  0  0  0  0  0
  -36.1095    3.3749  -44.0239 N   0  0  0  0  0  0  0  0  0  0  0  0
  -36.6762    2.4891  -45.0496 C   0  0  0  0  0  0  0  0  0  0  0  0
  -35.5626    1.6328  -45.6558 C   0  0  0  0  0  0  0  0  0  0  0  0
  -36.1439    0.7240  -46.7080 C   0  0  0  0  0  0  0  0  0  0  0  0
  -37.3278    0.7541  -46.9448 O   0  0  0  0  0  0  0  0  0  0  0  0
  -35.0929   -0.3928  -47.5917 X   0  0  0  0  0  0  0  0  0  0  0  0
  1  2  1  0  0  0  0
  2  3  1  0  0  0  0
  2  8  1  0  0  0  0
  3  4  1  0  0  0  0
  4  5  1  0  0  0  0
  5  6  1  0  0  0  0
  6  7  1  0  0  0  0
  6  8  1  0  0  0  0
  8  9  1  0  0  0  0
  9 10  1  0  0  0  0
 10 11  1  0  0  0  0
 11 12  2  0  0  0  0
 11 13  1  0  0  0  0
M  END
> <Index>
12254

> <PropertyFieldDistance>
nan

$$$$
9422602
BBcorina  12272117083D 1   1.00000     0.00000 
CORINA 4.3.0 0026  30.10.2019
 12 12  0  0  0  0  0  0  0  0999 V2000
  -37.0637    1.9712  -45.6993 C   0  0  0  0  0  0  0  0  0  0  0  0
  -35.7325    2.2104  -44.9839 C   0  0  0  0  0  0  0  0  0  0  0  0
  -34.5824    2.0509  -45.9801 C   0  0  0  0  0  0  0  0  0  0  0  0
  -35.7131    3.5696  -44.4271 N   0  0  0  0  0  0  0  0  0  0  0  0
  -36.8566    3.7875  -43.5293 C   0  0  0  0  0  0  0  0  0  0  0  0
  -36.8306    5.2310  -43.0197 C   0  0  0  0  0  0  0  0  0  0  0  0
  -35.5795    5.4806  -42.3733 O   0  0  0  0  0  0  0  0  0  0  0  0
  -34.4430    5.2786  -43.2192 C   0  0  0  0  0  0  0  0  0  0  0  0
  -34.4460    3.8355  -43.7306 C   0  0  0  0  0  0  0  0  0  0  0  0
  -33.1802    5.5327  -42.4371 C   0  0  0  0  0  0  0  0  0  0  0  0
  -33.2399    5.7696  -41.2544 O   0  0  0  0  0  0  0  0  0  0  0  0
  -31.6097    5.4839  -43.2518 X   0  0  0  0  0  0  0  0  0  0  0  0
  1  2  1  0  0  0  0
  2  3  1  0  0  0  0
  2  4  1  0  0  0  0
  4  5  1  0  0  0  0
  4  9  1  0  0  0  0
  5  6  1  0  0  0  0
  6  7  1  0  0  0  0
  7  8  1  0  0  0  0
  8  9  1  0  0  0  0
  8 10  1  0  0  0  0
 10 11  2  0  0  0  0
 10 12  1  0  0  0  0
M  END
> <Index>
12388

> <PropertyFieldDistance>
nan

$$$$
14945570
BBcorina  12272117083D 1   1.00000     0.00000 
CORINA 4.3.0 0026  30.10.2019
 13 14  0  0  0  0  0  0  0  0999 V2000
  -35.7729    2.0217  -46.7732 Br  0  0  0  0  0  0  0  0  0  0  0  0
  -36.6236    3.0167  -45.4085 C   0  0  0  0  0  0  0  0  0  0  0  0
  -37.9162    3.1471  -45.2502 N   0  0  0  0  0  0  0  0  0  0  0  0
  -38.1572    3.9226  -44.1785 C   0  0  0  0  0  0  0  0  0  0  0  0
  -36.9774    4.2818  -43.6591 C   0  0  0  0  0  0  0  0  0  0  0  0
  -36.7016    5.1448  -42.4547 C   0  0  0  0  0  0  0  0  0  0  0  0
  -35.2377    4.9348  -42.0441 C   0  0  0  0  0  0  0  0  0  0  0  0
  -34.3418    5.0636  -43.2791 C   0  0  0  0  0  0  0  0  0  0  0  0
  -34.5642    3.8636  -44.2066 C   0  0  0  0  0  0  0  0  0  0  0  0
  -36.0023    3.7097  -44.4382 N   0  0  0  0  0  0  0  0  0  0  0  0
  -34.8455    5.9758  -41.0275 C   0  0  0  0  0  0  0  0  0  0  0  0
  -33.9428    6.7420  -41.2651 O   0  0  0  0  0  0  0  0  0  0  0  0
  -35.7078    6.0755  -39.4850 X   0  0  0  0  0  0  0  0  0  0  0  0
  1  2  1  0  0  0  0
  2  3  2  0  0  0  0
  2 10  1  0  0  0  0
  3  4  1  0  0  0  0
  4  5  2  0  0  0  0
  5  6  1  0  0  0  0
  5 10  1  0  0  0  0
  6  7  1  0  0  0  0
  7  8  1  0  0  0  0
  7 11  1  0  0  0  0
  8  9  1  0  0  0  0
  9 10  1  0  0  0  0
 11 12  2  0  0  0  0
 11 13  1  0  0  0  0
M  END
> <Index>
12415

> <PropertyFieldDistance>
nan

$$$$
15139870
BBcorina  12272117083D 1   1.00000     0.00000 
CORINA 4.3.0 0026  30.10.2019
  9  9  0  0  0  0  0  0  0  0999 V2000
  -36.3856    2.2193  -44.5581 C   0  0  0  0  0  0  0  0  0  0  0  0
  -35.9894    3.6337  -44.5363 N   0  0  0  0  0  0  0  0  0  0  0  0
  -36.9640    4.4492  -43.7590 C   0  0  0  0  0  0  0  0  0  0  0  0
  -36.0176    6.0141  -43.5469 S   0  0  0  0  0  0  0  0  0  0  0  0
  -34.3819    5.1897  -43.4084 C   0  0  0  0  0  0  0  0  0  0  0  0
  -34.6326    3.7911  -44.0040 C   0  0  0  0  0  0  0  0  0  0  0  0
  -33.6436    3.5517  -45.1157 C   0  0  0  0  0  0  0  0  0  0  0  0
  -33.9733    3.7235  -46.2646 O   0  0  0  0  0  0  0  0  0  0  0  0
  -31.9987    3.0188  -44.7372 X   0  0  0  0  0  0  0  0  0  0  0  0
  1  2  1  0  0  0  0
  2  3  1  0  0  0  0
  2  6  1  0  0  0  0
  3  4  1  0  0  0  0
  4  5  1  0  0  0  0
  5  6  1  0  0  0  0
  6  7  1  0  0  0  0
  7  8  2  0  0  0  0
  7  9  1  0  0  0  0
M  END
> <Index>
12423

> <PropertyFieldDistance>
nan

$$$$
13776194
BBcorina  12272117083D 1   1.00000     0.00000 
CORINA 4.3.0 0026  30.10.2019
 12 13  0  0  0  0  0  0  0  0999 V2000
  -35.0671    6.8870  -41.7870 C   0  0  0  0  0  0  0  0  0  0  0  0
  -33.9651    6.8453  -41.2951 O   0  0  0  0  0  0  0  0  0  0  0  0
  -35.4221    5.9588  -42.9201 C   0  0  0  0  0  0  0  0  0  0  0  0
  -36.6048    5.0774  -42.5076 C   0  0  0  0  0  0  0  0  0  0  0  0
  -37.1113    4.2980  -43.7267 C   0  0  0  0  0  0  0  0  0  0  0  0
  -35.9729    3.6482  -44.3765 N   0  0  0  0  0  0  0  0  0  0  0  0
  -35.9849    2.5953  -45.2954 N   0  0  0  0  0  0  0  0  0  0  0  0
  -34.7349    2.3511  -45.6004 C   0  0  0  0  0  0  0  0  0  0  0  0
  -33.9495    3.1866  -44.9173 N   0  0  0  0  0  0  0  0  0  0  0  0
  -34.6809    3.9724  -44.1782 C   0  0  0  0  0  0  0  0  0  0  0  0
  -34.2173    5.0676  -43.2488 C   0  0  0  0  0  0  0  0  0  0  0  0
  -36.2655    8.0383  -41.1776 X   0  0  0  0  0  0  0  0  0  0  0  0
  1  2  2  0  0  0  0
  1  3  1  0  0  0  0
  1 12  1  0  0  0  0
  3  4  1  0  0  0  0
  3 11  1  0  0  0  0
  4  5  1  0  0  0  0
  5  6  1  0  0  0  0
  6  7  1  0  0  0  0
  6 10  1  0  0  0  0
  7  8  2  0  0  0  0
  8  9  1  0  0  0  0
  9 10  2  0  0  0  0
 10 11  1  0  0  0  0
M  END
> <Index>
12432

> <PropertyFieldDistance>
nan

$$$$
16736568
BBcorina  12272117083D 1   1.00000     0.00000 
CORINA 4.3.0 0026  30.10.2019
 12 13  0  0  0  0  0  0  0  0999 V2000
  -35.0657    6.8832  -41.7803 C   0  0  0  0  0  0  0  0  0  0  0  0
  -33.9632    6.8402  -41.2895 O   0  0  0  0  0  0  0  0  0  0  0  0
  -35.4212    5.9595  -42.9168 C   0  0  0  0  0  0  0  0  0  0  0  0
  -36.6028    5.0754  -42.5073 C   0  0  0  0  0  0  0  0  0  0  0  0
  -37.1112    4.3001  -43.7277 C   0  0  0  0  0  0  0  0  0  0  0  0
  -35.9742    3.6451  -44.3784 N   0  0  0  0  0  0  0  0  0  0  0  0
  -35.9896    2.6794  -45.2249 N   0  0  0  0  0  0  0  0  0  0  0  0
  -34.7739    2.3968  -45.5512 N   0  0  0  0  0  0  0  0  0  0  0  0
  -33.9654    3.1793  -44.9175 N   0  0  0  0  0  0  0  0  0  0  0  0
  -34.6826    3.9744  -44.1749 C   0  0  0  0  0  0  0  0  0  0  0  0
  -34.2165    5.0686  -43.2494 C   0  0  0  0  0  0  0  0  0  0  0  0
  -36.2643    8.0310  -41.1648 X   0  0  0  0  0  0  0  0  0  0  0  0
  1  2  2  0  0  0  0
  1  3  1  0  0  0  0
  1 12  1  0  0  0  0
  3  4  1  0  0  0  0
  3 11  1  0  0  0  0
  4  5  1  0  0  0  0
  5  6  1  0  0  0  0
  6  7  1  0  0  0  0
  6 10  1  0  0  0  0
  7  8  2  0  0  0  0
  8  9  1  0  0  0  0
  9 10  2  0  0  0  0
 10 11  1  0  0  0  0
M  END
> <Index>
12458

> <PropertyFieldDistance>
nan

$$$$
13940468
BBcorina  12272117083D 1   1.00000     0.00000 
CORINA 4.3.0 0026  30.10.2019
 14 14  0  0  0  0  0  0  0  0999 V2000
  -37.7926    2.9742  -45.8684 F   0  0  0  0  0  0  0  0  0  0  0  0
  -36.5329    2.3754  -45.9757 C   0  0  0  0  0  0  0  0  0  0  0  0
  -35.6331    3.2813  -46.5475 F   0  0  0  0  0  0  0  0  0  0  0  0
  -36.0384    1.9750  -44.5843 C   0  0  0  0  0  0  0  0  0  0  0  0
  -37.0863    1.0904  -43.9056 C   0  0  0  0  0  0  0  0  0  0  0  0
  -36.5486    0.5958  -42.5876 C   0  0  0  0  0  0  0  0  0  0  0  0
  -35.4415    0.9175  -42.2281 O   0  0  0  0  0  0  0  0  0  0  0  0
  -35.8191    3.1821  -43.7764 N   0  0  0  0  0  0  0  0  0  0  0  0
  -36.9842    4.0779  -43.8407 C   0  0  0  0  0  0  0  0  0  0  0  0
  -36.7371    5.2910  -42.9401 C   0  0  0  0  0  0  0  0  0  0  0  0
  -35.5299    5.9421  -43.3449 O   0  0  0  0  0  0  0  0  0  0  0  0
  -34.3760    5.0988  -43.2937 C   0  0  0  0  0  0  0  0  0  0  0  0
  -34.5979    3.8837  -44.1980 C   0  0  0  0  0  0  0  0  0  0  0  0
  -37.5397   -0.4568  -41.5664 X   0  0  0  0  0  0  0  0  0  0  0  0
  1  2  1  0  0  0  0
  2  3  1  0  0  0  0
  2  4  1  0  0  0  0
  4  5  1  0  0  0  0
  4  8  1  0  0  0  0
  5  6  1  0  0  0  0
  6  7  2  0  0  0  0
  6 14  1  0  0  0  0
  8  9  1  0  0  0  0
  8 13  1  0  0  0  0
  9 10  1  0  0  0  0
 10 11  1  0  0  0  0
 11 12  1  0  0  0  0
 12 13  1  0  0  0  0
M  END
> <Index>
12459

> <PropertyFieldDistance>
nan

$$$$
13259654
BBcorina  12272117083D 1   1.00000     0.00000 
CORINA 4.3.0 0026  30.10.2019
 12 13  0  0  0  0  0  0  0  0999 V2000
  -36.3063    4.2730  -41.0788 C   0  0  0  0  0  0  0  0  0  0  0  0
  -36.5920    5.0274  -42.3788 C   0  0  0  0  0  0  0  0  0  0  0  0
  -36.9728    4.0302  -43.4783 C   0  0  0  0  0  0  0  0  0  0  0  0
  -35.9979    4.1471  -44.5797 N   0  0  0  0  0  0  0  0  0  0  0  0
  -34.6427    3.8307  -44.0964 C   0  0  0  0  0  0  0  0  0  0  0  0
  -34.2654    4.8282  -42.9965 C   0  0  0  0  0  0  0  0  0  0  0  0
  -35.3867    5.7628  -42.7979 N   0  0  0  0  0  0  0  0  0  0  0  0
  -35.6522    6.5058  -44.0418 C   0  0  0  0  0  0  0  0  0  0  0  0
  -36.0293    5.5084  -45.1419 C   0  0  0  0  0  0  0  0  0  0  0  0
  -35.0418    5.6095  -46.2757 C   0  0  0  0  0  0  0  0  0  0  0  0
  -34.4329    4.6306  -46.6352 O   0  0  0  0  0  0  0  0  0  0  0  0
  -34.7742    7.1632  -47.0804 X   0  0  0  0  0  0  0  0  0  0  0  0
  1  2  1  0  0  0  0
  2  3  1  0  0  0  0
  2  7  1  0  0  0  0
  3  4  1  0  0  0  0
  4  5  1  0  0  0  0
  4  9  1  0  0  0  0
  5  6  1  0  0  0  0
  6  7  1  0  0  0  0
  7  8  1  0  0  0  0
  8  9  1  0  0  0  0
  9 10  1  0  0  0  0
 10 11  2  0  0  0  0
 10 12  1  0  0  0  0
M  END
> <Index>
12488

> <PropertyFieldDistance>
nan

$$$$
16784336
BBcorina  12272117083D 1   1.00000     0.00000 
CORINA 4.3.0 0026  30.10.2019
 12 13  0  0  0  0  0  0  0  0999 V2000
  -36.6613    6.8001  -43.2342 C   0  0  0  0  0  0  0  0  0  0  0  0
  -36.6412    5.3758  -42.6758 C   0  0  0  0  0  0  0  0  0  0  0  0
  -37.0196    4.3853  -43.7816 C   0  0  0  0  0  0  0  0  0  0  0  0
  -35.9004    3.4493  -43.9843 N   0  0  0  0  0  0  0  0  0  0  0  0
  -34.6940    4.1858  -44.3992 C   0  0  0  0  0  0  0  0  0  0  0  0
  -34.3154    5.1764  -43.2935 C   0  0  0  0  0  0  0  0  0  0  0  0
  -35.2871    5.0538  -42.1931 N   0  0  0  0  0  0  0  0  0  0  0  0
  -35.2568    3.6895  -41.6392 C   0  0  0  0  0  0  0  0  0  0  0  0
  -35.6370    2.6967  -42.7427 C   0  0  0  0  0  0  0  0  0  0  0  0
  -33.8704    3.3793  -41.1363 C   0  0  0  0  0  0  0  0  0  0  0  0
  -33.0126    4.2285  -41.1679 O   0  0  0  0  0  0  0  0  0  0  0  0
  -33.4976    1.7677  -40.5062 X   0  0  0  0  0  0  0  0  0  0  0  0
  1  2  1  0  0  0  0
  2  3  1  0  0  0  0
  2  7  1  0  0  0  0
  3  4  1  0  0  0  0
  4  5  1  0  0  0  0
  4  9  1  0  0  0  0
  5  6  1  0  0  0  0
  6  7  1  0  0  0  0
  7  8  1  0  0  0  0
  8  9  1  0  0  0  0
  8 10  1  0  0  0  0
 10 11  2  0  0  0  0
 10 12  1  0  0  0  0
M  END
> <Index>
12492

> <PropertyFieldDistance>
nan

$$$$
11243988
BBcorina  12272117083D 1   1.00000     0.00000 
CORINA 4.3.0 0026  30.10.2019
 16 17  0  0  0  0  0  0  0  0999 V2000
  -34.9613    6.9316  -41.8358 C   0  0  0  0  0  0  0  0  0  0  0  0
  -35.2422    5.4952  -42.2815 C   0  0  0  0  0  0  0  0  0  0  0  0
  -36.6958    5.3791  -42.7482 C   0  0  0  0  0  0  0  0  0  0  0  0
  -36.9547    3.9563  -43.2486 C   0  0  0  0  0  0  0  0  0  0  0  0
  -36.0396    3.6515  -44.3560 N   0  0  0  0  0  0  0  0  0  0  0  0
  -34.6387    3.7104  -43.9198 C   0  0  0  0  0  0  0  0  0  0  0  0
  -34.3113    5.1262  -43.4400 C   0  0  0  0  0  0  0  0  0  0  0  0
  -36.3346    2.4142  -44.9206 C   0  0  0  0  0  0  0  0  0  0  0  0
  -37.6123    2.1352  -45.4054 C   0  0  0  0  0  0  0  0  0  0  0  0
  -37.8639    0.8969  -45.9574 C   0  0  0  0  0  0  0  0  0  0  0  0
  -36.9144   -0.0172  -46.0298 N   0  0  0  0  0  0  0  0  0  0  0  0
  -35.6932    0.2082  -45.5824 C   0  0  0  0  0  0  0  0  0  0  0  0
  -35.3588    1.4227  -45.0215 C   0  0  0  0  0  0  0  0  0  0  0  0
  -35.0071    4.5548  -41.1276 C   0  0  0  0  0  0  0  0  0  0  0  0
  -34.1765    3.6829  -41.2187 O   0  0  0  0  0  0  0  0  0  0  0  0
  -35.9483    4.7284  -39.6386 X   0  0  0  0  0  0  0  0  0  0  0  0
  1  2  1  0  0  0  0
  2  3  1  0  0  0  0
  2  7  1  0  0  0  0
  2 14  1  0  0  0  0
  3  4  1  0  0  0  0
  4  5  1  0  0  0  0
  5  6  1  0  0  0  0
  5  8  1  0  0  0  0
  6  7  1  0  0  0  0
  8  9  2  0  0  0  0
  8 13  1  0  0  0  0
  9 10  1  0  0  0  0
 10 11  2  0  0  0  0
 11 12  1  0  0  0  0
 12 13  2  0  0  0  0
 14 15  2  0  0  0  0
 14 16  1  0  0  0  0
M  END
> <Index>
12502

> <PropertyFieldDistance>
nan

$$$$
12297778
BBcorina  12272117083D 1   1.00000     0.00000 
CORINA 4.3.0 0026  30.10.2019
 14 14  0  0  0  0  0  0  0  0999 V2000
  -38.1623    2.2771  -45.3544 F   0  0  0  0  0  0  0  0  0  0  0  0
  -36.9039    2.0357  -45.9159 C   0  0  0  0  0  0  0  0  0  0  0  0
  -36.6494    2.9823  -46.9143 F   0  0  0  0  0  0  0  0  0  0  0  0
  -35.8320    2.1400  -44.8292 C   0  0  0  0  0  0  0  0  0  0  0  0
  -35.7627    3.5237  -44.3409 N   0  0  0  0  0  0  0  0  0  0  0  0
  -36.8801    3.8187  -43.4350 C   0  0  0  0  0  0  0  0  0  0  0  0
  -36.8584    5.3029  -43.0625 C   0  0  0  0  0  0  0  0  0  0  0  0
  -35.5261    5.6346  -42.3847 C   0  0  0  0  0  0  0  0  0  0  0  0
  -35.4742    7.1296  -42.0632 C   0  0  0  0  0  0  0  0  0  0  0  0
  -34.2184    7.4334  -41.2876 C   0  0  0  0  0  0  0  0  0  0  0  0
  -33.4447    6.5458  -41.0196 O   0  0  0  0  0  0  0  0  0  0  0  0
  -34.3774    5.2731  -43.3304 C   0  0  0  0  0  0  0  0  0  0  0  0
  -34.4710    3.7898  -43.6950 C   0  0  0  0  0  0  0  0  0  0  0  0
  -33.8774    9.0911  -40.7695 X   0  0  0  0  0  0  0  0  0  0  0  0
  1  2  1  0  0  0  0
  2  3  1  0  0  0  0
  2  4  1  0  0  0  0
  4  5  1  0  0  0  0
  5  6  1  0  0  0  0
  5 13  1  0  0  0  0
  6  7  1  0  0  0  0
  7  8  1  0  0  0  0
  8  9  1  0  0  0  0
  8 12  1  0  0  0  0
  9 10  1  0  0  0  0
 10 11  2  0  0  0  0
 10 14  1  0  0  0  0
 12 13  1  0  0  0  0
M  END
> <Index>
12530

> <PropertyFieldDistance>
nan

$$$$
14320256
BBcorina  12272117083D 1   1.00000     0.00000 
CORINA 4.3.0 0026  30.10.2019
 16 17  0  0  0  0  0  0  0  0999 V2000
  -34.9616    6.9314  -41.8361 C   0  0  0  0  0  0  0  0  0  0  0  0
  -35.2425    5.4948  -42.2818 C   0  0  0  0  0  0  0  0  0  0  0  0
  -36.6961    5.3788  -42.7486 C   0  0  0  0  0  0  0  0  0  0  0  0
  -36.9542    3.9556  -43.2485 C   0  0  0  0  0  0  0  0  0  0  0  0
  -36.0397    3.6512  -44.3563 N   0  0  0  0  0  0  0  0  0  0  0  0
  -34.6388    3.7099  -43.9200 C   0  0  0  0  0  0  0  0  0  0  0  0
  -34.3116    5.1258  -43.4401 C   0  0  0  0  0  0  0  0  0  0  0  0
  -36.3342    2.4163  -44.9197 C   0  0  0  0  0  0  0  0  0  0  0  0
  -35.5775    1.9427  -45.9893 C   0  0  0  0  0  0  0  0  0  0  0  0
  -35.8636    0.7292  -46.5462 C   0  0  0  0  0  0  0  0  0  0  0  0
  -36.9198   -0.0399  -46.0404 C   0  0  0  0  0  0  0  0  0  0  0  0
  -37.6815    0.4426  -44.9680 C   0  0  0  0  0  0  0  0  0  0  0  0
  -37.3856    1.6550  -44.4139 C   0  0  0  0  0  0  0  0  0  0  0  0
  -37.2312   -1.3445  -46.6360 C   0  0  0  0  0  0  0  0  0  0  0  0
  -38.1461   -2.0090  -46.1967 O   0  0  0  0  0  0  0  0  0  0  0  0
  -36.2766   -1.9450  -48.0002 X   0  0  0  0  0  0  0  0  0  0  0  0
  1  2  1  0  0  0  0
  2  3  1  0  0  0  0
  2  7  1  0  0  0  0
  3  4  1  0  0  0  0
  4  5  1  0  0  0  0
  5  6  1  0  0  0  0
  5  8  1  0  0  0  0
  6  7  1  0  0  0  0
  8  9  2  0  0  0  0
  8 13  1  0  0  0  0
  9 10  1  0  0  0  0
 10 11  2  0  0  0  0
 11 12  1  0  0  0  0
 11 14  1  0  0  0  0
 12 13  2  0  0  0  0
 14 15  2  0  0  0  0
 14 16  1  0  0  0  0
M  END
> <Index>
12531

> <PropertyFieldDistance>
nan

$$$$
15071934
BBcorina  12272117083D 1   1.00000     0.00000 
CORINA 4.3.0 0026  30.10.2019
 14 15  0  0  0  0  0  0  0  0999 V2000
  -36.0657    3.4798  -41.7392 C   0  0  0  0  0  0  0  0  0  0  0  0
  -36.2755    4.4418  -42.9104 C   0  0  0  0  0  0  0  0  0  0  0  0
  -35.2591    5.6047  -42.8537 C   0  0  0  0  0  0  0  0  0  0  0  0
  -33.9940    4.9027  -43.4731 C   0  0  0  0  0  0  0  0  0  0  0  0
  -34.5973    3.9626  -44.5405 C   0  0  0  0  0  0  0  0  0  0  0  0
  -36.0082    3.7666  -44.1994 N   0  0  0  0  0  0  0  0  0  0  0  0
  -37.7123    4.9900  -42.9143 C   0  0  0  0  0  0  0  0  0  0  0  0
  -38.5643    3.7866  -43.4205 C   0  0  0  0  0  0  0  0  0  0  0  0
  -38.8133    2.7930  -42.3151 C   0  0  0  0  0  0  0  0  0  0  0  0
  -38.8965    3.1708  -41.1711 O   0  0  0  0  0  0  0  0  0  0  0  0
  -37.4461    3.0896  -44.6987 S   0  0  0  0  0  0  0  0  0  0  0  0
  -37.2764    1.6894  -44.5265 O   0  0  0  0  0  0  0  0  0  0  0  0
  -37.7045    3.6589  -45.9748 O   0  0  0  0  0  0  0  0  0  0  0  0
  -38.9838    1.0724  -42.6936 X   0  0  0  0  0  0  0  0  0  0  0  0
  1  2  1  0  0  0  0
  2  3  1  0  0  0  0
  2  6  1  0  0  0  0
  2  7  1  0  0  0  0
  3  4  1  0  0  0  0
  4  5  1  0  0  0  0
  5  6  1  0  0  0  0
  6 11  1  0  0  0  0
  7  8  1  0  0  0  0
  8  9  1  0  0  0  0
  8 11  1  0  0  0  0
  9 10  2  0  0  0  0
  9 14  1  0  0  0  0
 11 12  2  0  0  0  0
 11 13  2  0  0  0  0
M  END
> <Index>
12536

> <PropertyFieldDistance>
nan

$$$$
14391896
BBcorina  12272117083D 1   1.00000     0.00000 
CORINA 4.3.0 0026  30.10.2019
 12 14  0  0  0  0  0  0  0  0999 V2000
  -38.5215    4.0823  -43.7520 C   0  0  0  0  0  0  0  0  0  0  0  0
  -39.3359    3.5714  -43.0211 O   0  0  0  0  0  0  0  0  0  0  0  0
  -37.0588    4.0479  -43.3912 C   0  0  0  0  0  0  0  0  0  0  0  0
  -36.3944    5.2840  -42.7359 C   0  0  0  0  0  0  0  0  0  0  0  0
  -35.3280    4.2310  -42.3344 C   0  0  0  0  0  0  0  0  0  0  0  0
  -36.6076    3.3816  -42.0583 C   0  0  0  0  0  0  0  0  0  0  0  0
  -36.0861    3.6567  -44.4673 N   0  0  0  0  0  0  0  0  0  0  0  0
  -34.7874    3.7731  -43.7338 C   0  0  0  0  0  0  0  0  0  0  0  0
  -36.3185    2.2755  -44.9102 C   0  0  0  0  0  0  0  0  0  0  0  0
  -37.5738    2.0019  -45.7411 C   0  0  0  0  0  0  0  0  0  0  0  0
  -36.1965    1.9836  -46.4072 C   0  0  0  0  0  0  0  0  0  0  0  0
  -39.0461    4.8716  -45.2469 X   0  0  0  0  0  0  0  0  0  0  0  0
  1  2  2  0  0  0  0
  1  3  1  0  0  0  0
  1 12  1  0  0  0  0
  3  4  1  0  0  0  0
  3  6  1  0  0  0  0
  3  7  1  0  0  0  0
  4  5  1  0  0  0  0
  5  6  1  0  0  0  0
  5  8  1  0  0  0  0
  7  8  1  0  0  0  0
  7  9  1  0  0  0  0
  9 10  1  0  0  0  0
  9 11  1  0  0  0  0
 10 11  1  0  0  0  0
M  END
> <Index>
12540

> <PropertyFieldDistance>
nan

$$$$
10543104
BBcorina  12272117083D 1   1.00000     0.00000 
CORINA 4.3.0 0026  30.10.2019
 11 11  0  0  0  0  0  0  0  0999 V2000
  -35.1121    4.2651  -41.0663 C   0  0  0  0  0  0  0  0  0  0  0  0
  -35.2004    4.8837  -42.4629 C   0  0  0  0  0  0  0  0  0  0  0  0
  -34.4221    6.2002  -42.5097 C   0  0  0  0  0  0  0  0  0  0  0  0
  -36.6777    5.1172  -42.8540 C   0  0  0  0  0  0  0  0  0  0  0  0
  -37.0122    3.8672  -43.7062 C   0  0  0  0  0  0  0  0  0  0  0  0
  -35.7576    3.6272  -44.4643 N   0  0  0  0  0  0  0  0  0  0  0  0
  -35.6959    2.2442  -44.9559 C   0  0  0  0  0  0  0  0  0  0  0  0
  -36.9572    1.9247  -45.7163 C   0  0  0  0  0  0  0  0  0  0  0  0
  -37.8186    2.7626  -45.8364 O   0  0  0  0  0  0  0  0  0  0  0  0
  -34.6553    3.9028  -43.5175 C   0  0  0  0  0  0  0  0  0  0  0  0
  -37.1760    0.3214  -46.4335 X   0  0  0  0  0  0  0  0  0  0  0  0
  1  2  1  0  0  0  0
  2  3  1  0  0  0  0
  2  4  1  0  0  0  0
  2 10  1  0  0  0  0
  4  5  1  0  0  0  0
  5  6  1  0  0  0  0
  6  7  1  0  0  0  0
  6 10  1  0  0  0  0
  7  8  1  0  0  0  0
  8  9  2  0  0  0  0
  8 11  1  0  0  0  0
M  END
> <Index>
12555

> <PropertyFieldDistance>
nan

$$$$
16970354
BBcorina  12272117083D 1   1.00000     0.00000 
CORINA 4.3.0 0026  30.10.2019
 10 10  0  0  0  0  0  0  0  0999 V2000
  -36.8336    1.8514  -45.8167 C   0  0  0  0  0  0  0  0  0  0  0  0
  -35.8413    2.1706  -44.6968 C   0  0  0  0  0  0  0  0  0  0  0  0
  -35.7640    3.6259  -44.5111 N   0  0  0  0  0  0  0  0  0  0  0  0
  -37.0173    4.1532  -43.9411 C   0  0  0  0  0  0  0  0  0  0  0  0
  -36.6510    4.8957  -42.6385 C   0  0  0  0  0  0  0  0  0  0  0  0
  -35.1501    5.2332  -42.8394 C   0  0  0  0  0  0  0  0  0  0  0  0
  -34.6487    3.9866  -43.6101 C   0  0  0  0  0  0  0  0  0  0  0  0
  -33.4167    4.3244  -44.4096 C   0  0  0  0  0  0  0  0  0  0  0  0
  -33.4299    4.2195  -45.6125 O   0  0  0  0  0  0  0  0  0  0  0  0
  -31.9503    4.8750  -43.5853 X   0  0  0  0  0  0  0  0  0  0  0  0
  1  2  1  0  0  0  0
  2  3  1  0  0  0  0
  3  4  1  0  0  0  0
  3  7  1  0  0  0  0
  4  5  1  0  0  0  0
  5  6  1  0  0  0  0
  6  7  1  0  0  0  0
  7  8  1  0  0  0  0
  8  9  2  0  0  0  0
  8 10  1  0  0  0  0
M  END
> <Index>
12558

> <PropertyFieldDistance>
nan

$$$$
13287762
BBcorina  12272117083D 1   1.00000     0.00000 
CORINA 4.3.0 0026  30.10.2019
 13 13  0  0  0  0  0  0  0  0999 V2000
  -35.1155    0.6743  -44.4701 C   0  0  0  0  0  0  0  0  0  0  0  0
  -35.5848    1.5779  -45.6122 C   0  0  0  0  0  0  0  0  0  0  0  0
  -36.1560    0.7178  -46.7413 C   0  0  0  0  0  0  0  0  0  0  0  0
  -36.6674    2.5291  -45.0980 C   0  0  0  0  0  0  0  0  0  0  0  0
  -36.1051    3.3892  -44.0483 N   0  0  0  0  0  0  0  0  0  0  0  0
  -37.0920    4.3762  -43.5919 C   0  0  0  0  0  0  0  0  0  0  0  0
  -36.5240    5.1553  -42.4035 C   0  0  0  0  0  0  0  0  0  0  0  0
  -35.2320    5.8576  -42.8305 C   0  0  0  0  0  0  0  0  0  0  0  0
  -34.2391    4.8127  -43.3470 C   0  0  0  0  0  0  0  0  0  0  0  0
  -34.8733    4.0435  -44.5081 C   0  0  0  0  0  0  0  0  0  0  0  0
  -34.6368    6.5790  -41.6488 C   0  0  0  0  0  0  0  0  0  0  0  0
  -33.5296    6.2922  -41.2614 O   0  0  0  0  0  0  0  0  0  0  0  0
  -35.5605    7.8467  -40.8288 X   0  0  0  0  0  0  0  0  0  0  0  0
  1  2  1  0  0  0  0
  2  3  1  0  0  0  0
  2  4  1  0  0  0  0
  4  5  1  0  0  0  0
  5  6  1  0  0  0  0
  5 10  1  0  0  0  0
  6  7  1  0  0  0  0
  7  8  1  0  0  0  0
  8  9  1  0  0  0  0
  8 11  1  0  0  0  0
  9 10  1  0  0  0  0
 11 12  2  0  0  0  0
 11 13  1  0  0  0  0
M  END
> <Index>
12566

> <PropertyFieldDistance>
nan

$$$$
13818114
BBcorina  12272117083D 1   1.00000     0.00000 
CORINA 4.3.0 0026  30.10.2019
 12 13  0  0  0  0  0  0  0  0999 V2000
  -37.4932    7.2597  -42.1046 C   0  0  0  0  0  0  0  0  0  0  0  0
  -37.0451    8.0913  -42.8568 O   0  0  0  0  0  0  0  0  0  0  0  0
  -36.8527    5.8983  -42.0185 C   0  0  0  0  0  0  0  0  0  0  0  0
  -37.8277    4.8057  -42.5291 C   0  0  0  0  0  0  0  0  0  0  0  0
  -37.0767    4.1160  -43.7005 C   0  0  0  0  0  0  0  0  0  0  0  0
  -35.6632    4.3794  -43.3995 N   0  0  0  0  0  0  0  0  0  0  0  0
  -34.7058    4.2130  -44.4843 C   0  0  0  0  0  0  0  0  0  0  0  0
  -33.3138    4.5495  -43.9243 C   0  0  0  0  0  0  0  0  0  0  0  0
  -33.3019    5.8425  -43.3217 O   0  0  0  0  0  0  0  0  0  0  0  0
  -34.3083    6.0734  -42.3222 C   0  0  0  0  0  0  0  0  0  0  0  0
  -35.6583    5.8061  -42.9718 C   0  0  0  0  0  0  0  0  0  0  0  0
  -38.9024    7.6397  -41.1032 X   0  0  0  0  0  0  0  0  0  0  0  0
  1  2  2  0  0  0  0
  1  3  1  0  0  0  0
  1 12  1  0  0  0  0
  3  4  1  0  0  0  0
  3 11  1  0  0  0  0
  4  5  1  0  0  0  0
  5  6  1  0  0  0  0
  6  7  1  0  0  0  0
  6 11  1  0  0  0  0
  7  8  1  0  0  0  0
  8  9  1  0  0  0  0
  9 10  1  0  0  0  0
 10 11  1  0  0  0  0
M  END
> <Index>
12627

> <PropertyFieldDistance>
nan

$$$$
14791192
BBcorina  12272117083D 1   1.00000     0.00000 
CORINA 4.3.0 0026  30.10.2019
 15 15  0  0  0  0  0  0  0  0999 V2000
  -36.9494    0.9914  -44.1357 F   0  0  0  0  0  0  0  0  0  0  0  0
  -36.1379    1.3423  -45.2198 C   0  0  0  0  0  0  0  0  0  0  0  0
  -36.4796    0.5625  -46.3299 F   0  0  0  0  0  0  0  0  0  0  0  0
  -34.7967    1.1207  -44.8893 F   0  0  0  0  0  0  0  0  0  0  0  0
  -36.3433    2.8214  -45.5528 C   0  0  0  0  0  0  0  0  0  0  0  0
  -35.9854    3.6380  -44.3904 N   0  0  0  0  0  0  0  0  0  0  0  0
  -37.0317    3.9456  -43.4235 C   0  0  0  0  0  0  0  0  0  0  0  0
  -36.6332    5.1490  -42.5683 C   0  0  0  0  0  0  0  0  0  0  0  0
  -35.2261    4.9088  -42.0080 C   0  0  0  0  0  0  0  0  0  0  0  0
  -34.2313    4.9343  -43.1708 C   0  0  0  0  0  0  0  0  0  0  0  0
  -34.7227    4.0531  -44.2832 C   0  0  0  0  0  0  0  0  0  0  0  0
  -33.9274    3.6957  -45.1263 O   0  0  0  0  0  0  0  0  0  0  0  0
  -34.8809    5.9940  -41.0209 C   0  0  0  0  0  0  0  0  0  0  0  0
  -33.9243    6.7048  -41.2151 O   0  0  0  0  0  0  0  0  0  0  0  0
  -35.8779    6.2268  -39.5771 X   0  0  0  0  0  0  0  0  0  0  0  0
  1  2  1  0  0  0  0
  2  3  1  0  0  0  0
  2  4  1  0  0  0  0
  2  5  1  0  0  0  0
  5  6  1  0  0  0  0
  6  7  1  0  0  0  0
  6 11  1  0  0  0  0
  7  8  1  0  0  0  0
  8  9  1  0  0  0  0
  9 10  1  0  0  0  0
  9 13  1  0  0  0  0
 10 11  1  0  0  0  0
 11 12  2  0  0  0  0
 13 14  2  0  0  0  0
 13 15  1  0  0  0  0
M  END
> <Index>
12667

> <PropertyFieldDistance>
nan

$$$$
16475668
BBcorina  12272117083D 1   1.00000     0.00000 
CORINA 4.3.0 0026  30.10.2019
 12 13  0  0  0  0  0  0  0  0999 V2000
  -34.9373    5.9877  -41.0040 C   0  0  0  0  0  0  0  0  0  0  0  0
  -35.7040    6.8972  -40.7958 O   0  0  0  0  0  0  0  0  0  0  0  0
  -35.2739    4.9389  -42.0324 C   0  0  0  0  0  0  0  0  0  0  0  0
  -36.6295    5.2600  -42.6677 C   0  0  0  0  0  0  0  0  0  0  0  0
  -37.0811    4.0817  -43.5371 C   0  0  0  0  0  0  0  0  0  0  0  0
  -35.9860    3.7133  -44.4393 N   0  0  0  0  0  0  0  0  0  0  0  0
  -36.0632    2.9419  -45.6009 N   0  0  0  0  0  0  0  0  0  0  0  0
  -34.8598    2.8525  -46.1115 C   0  0  0  0  0  0  0  0  0  0  0  0
  -33.9796    3.5653  -45.2878 C   0  0  0  0  0  0  0  0  0  0  0  0
  -34.6954    4.0823  -44.2699 C   0  0  0  0  0  0  0  0  0  0  0  0
  -34.1953    4.9262  -43.1237 C   0  0  0  0  0  0  0  0  0  0  0  0
  -33.4181    5.8867  -40.1013 X   0  0  0  0  0  0  0  0  0  0  0  0
  1  2  2  0  0  0  0
  1  3  1  0  0  0  0
  1 12  1  0  0  0  0
  3  4  1  0  0  0  0
  3 11  1  0  0  0  0
  4  5  1  0  0  0  0
  5  6  1  0  0  0  0
  6  7  1  0  0  0  0
  6 10  1  0  0  0  0
  7  8  2  0  0  0  0
  8  9  1  0  0  0  0
  9 10  2  0  0  0  0
 10 11  1  0  0  0  0
M  END
> <Index>
12718

> <PropertyFieldDistance>
nan

$$$$
10974604
BBcorina  12272117083D 1   1.00000     0.00000 
CORINA 4.3.0 0026  30.10.2019
 12 12  0  0  0  0  0  0  0  0999 V2000
  -36.5330    0.4206  -46.3717 C   0  0  0  0  0  0  0  0  0  0  0  0
  -36.3560    1.3260  -45.1511 C   0  0  0  0  0  0  0  0  0  0  0  0
  -36.1258    2.7662  -45.6135 C   0  0  0  0  0  0  0  0  0  0  0  0
  -35.9564    3.6331  -44.4448 N   0  0  0  0  0  0  0  0  0  0  0  0
  -37.0556    4.3222  -43.7586 C   0  0  0  0  0  0  0  0  0  0  0  0
  -36.4878    4.7359  -42.3828 C   0  0  0  0  0  0  0  0  0  0  0  0
  -34.9733    4.8165  -42.6765 C   0  0  0  0  0  0  0  0  0  0  0  0
  -34.7742    3.8999  -43.8633 C   0  0  0  0  0  0  0  0  0  0  0  0
  -33.7043    3.4648  -44.2333 O   0  0  0  0  0  0  0  0  0  0  0  0
  -37.0298    6.0759  -41.9565 C   0  0  0  0  0  0  0  0  0  0  0  0
  -36.2745    6.9961  -41.7540 O   0  0  0  0  0  0  0  0  0  0  0  0
  -38.7736    6.3008  -41.7523 X   0  0  0  0  0  0  0  0  0  0  0  0
  1  2  1  0  0  0  0
  2  3  1  0  0  0  0
  3  4  1  0  0  0  0
  4  5  1  0  0  0  0
  4  8  1  0  0  0  0
  5  6  1  0  0  0  0
  6  7  1  0  0  0  0
  6 10  1  0  0  0  0
  7  8  1  0  0  0  0
  8  9  2  0  0  0  0
 10 11  2  0  0  0  0
 10 12  1  0  0  0  0
M  END
> <Index>
12727

> <PropertyFieldDistance>
nan

$$$$
16890148
BBcorina  12272117083D 1   1.00000     0.00000 
CORINA 4.3.0 0026  30.10.2019
 11 12  0  0  0  0  0  0  0  0999 V2000
  -37.5470    5.3645  -42.7851 C   0  0  0  0  0  0  0  0  0  0  0  0
  -37.4549    4.7794  -41.7328 O   0  0  0  0  0  0  0  0  0  0  0  0
  -36.9410    4.7731  -44.0317 C   0  0  0  0  0  0  0  0  0  0  0  0
  -36.2740    3.4389  -43.6909 C   0  0  0  0  0  0  0  0  0  0  0  0
  -35.1086    3.6852  -42.7327 C   0  0  0  0  0  0  0  0  0  0  0  0
  -34.3727    2.3593  -42.5075 C   0  0  0  0  0  0  0  0  0  0  0  0
  -33.5554    2.0370  -43.7585 C   0  0  0  0  0  0  0  0  0  0  0  0
  -34.4461    2.0346  -44.9911 C   0  0  0  0  0  0  0  0  0  0  0  0
  -35.7492    1.2462  -44.9829 C   0  0  0  0  0  0  0  0  0  0  0  0
  -35.7701    2.7826  -44.9744 C   0  0  0  0  0  0  0  0  0  0  0  0
  -38.3937    6.9169  -42.8634 X   0  0  0  0  0  0  0  0  0  0  0  0
  1  2  2  0  0  0  0
  1  3  1  0  0  0  0
  1 11  1  0  0  0  0
  3  4  1  0  0  0  0
  4  5  1  0  0  0  0
  4 10  1  0  0  0  0
  5  6  1  0  0  0  0
  6  7  1  0  0  0  0
  7  8  1  0  0  0  0
  8  9  1  0  0  0  0
  8 10  1  0  0  0  0
  9 10  1  0  0  0  0
M  END
> <Index>
12754

> <PropertyFieldDistance>
nan

$$$$
10338200
BBcorina  12272117083D 1   1.00000     0.00000 
CORINA 4.3.0 0026  30.10.2019
 13 14  0  0  0  0  0  0  0  0999 V2000
  -36.2477    2.2364  -44.3053 C   0  0  0  0  0  0  0  0  0  0  0  0
  -36.4139    3.6390  -44.6942 N   0  0  0  0  0  0  0  0  0  0  0  0
  -36.3762    4.1022  -45.8987 N   0  0  0  0  0  0  0  0  0  0  0  0
  -36.5597    5.3793  -45.8922 N   0  0  0  0  0  0  0  0  0  0  0  0
  -36.7259    5.7780  -44.6353 C   0  0  0  0  0  0  0  0  0  0  0  0
  -36.9751    7.1644  -44.1024 C   0  0  0  0  0  0  0  0  0  0  0  0
  -37.5015    7.0421  -42.6665 C   0  0  0  0  0  0  0  0  0  0  0  0
  -36.5882    6.1126  -41.8627 C   0  0  0  0  0  0  0  0  0  0  0  0
  -36.7572    4.6708  -42.3596 C   0  0  0  0  0  0  0  0  0  0  0  0
  -36.6324    4.6697  -43.8598 C   0  0  0  0  0  0  0  0  0  0  0  0
  -36.9560    6.1865  -40.4031 C   0  0  0  0  0  0  0  0  0  0  0  0
  -37.3169    5.1923  -39.8203 O   0  0  0  0  0  0  0  0  0  0  0  0
  -36.8590    7.7305  -39.5430 X   0  0  0  0  0  0  0  0  0  0  0  0
  1  2  1  0  0  0  0
  2  3  1  0  0  0  0
  2 10  1  0  0  0  0
  3  4  2  0  0  0  0
  4  5  1  0  0  0  0
  5  6  1  0  0  0  0
  5 10  2  0  0  0  0
  6  7  1  0  0  0  0
  7  8  1  0  0  0  0
  8  9  1  0  0  0  0
  8 11  1  0  0  0  0
  9 10  1  0  0  0  0
 11 12  2  0  0  0  0
 11 13  1  0  0  0  0
M  END
> <Index>
12776

> <PropertyFieldDistance>
nan

$$$$
15498340
BBcorina  12272117083D 1   1.00000     0.00000 
CORINA 4.3.0 0026  30.10.2019
 11 11  0  0  0  0  0  0  0  0999 V2000
  -37.4359    4.0705  -42.4807 C   0  0  0  0  0  0  0  0  0  0  0  0
  -36.8287    4.5760  -43.7910 C   0  0  0  0  0  0  0  0  0  0  0  0
  -37.9367    4.9428  -44.7803 C   0  0  0  0  0  0  0  0  0  0  0  0
  -35.9485    3.5545  -44.3703 N   0  0  0  0  0  0  0  0  0  0  0  0
  -34.6533    3.8419  -44.1415 C   0  0  0  0  0  0  0  0  0  0  0  0
  -33.7169    3.1617  -44.5038 O   0  0  0  0  0  0  0  0  0  0  0  0
  -34.5357    5.1365  -43.3676 C   0  0  0  0  0  0  0  0  0  0  0  0
  -35.9239    5.7993  -43.5240 C   0  0  0  0  0  0  0  0  0  0  0  0
  -35.9399    6.7477  -44.6950 C   0  0  0  0  0  0  0  0  0  0  0  0
  -35.2117    6.5540  -45.6389 O   0  0  0  0  0  0  0  0  0  0  0  0
  -37.0256    8.1455  -44.6871 X   0  0  0  0  0  0  0  0  0  0  0  0
  1  2  1  0  0  0  0
  2  3  1  0  0  0  0
  2  4  1  0  0  0  0
  2  8  1  0  0  0  0
  4  5  1  0  0  0  0
  5  6  2  0  0  0  0
  5  7  1  0  0  0  0
  7  8  1  0  0  0  0
  8  9  1  0  0  0  0
  9 10  2  0  0  0  0
  9 11  1  0  0  0  0
M  END
> <Index>
12840

> <PropertyFieldDistance>
nan

$$$$
13150608
BBcorina  12272117083D 1   1.00000     0.00000 
CORINA 4.3.0 0026  30.10.2019
 11 11  0  0  0  0  0  0  0  0999 V2000
  -32.9411    3.9789  -43.6109 C   0  0  0  0  0  0  0  0  0  0  0  0
  -32.5682    4.6856  -44.5164 O   0  0  0  0  0  0  0  0  0  0  0  0
  -34.3519    3.4493  -43.6003 C   0  0  0  0  0  0  0  0  0  0  0  0
  -35.1124    3.9671  -44.8335 C   0  0  0  0  0  0  0  0  0  0  0  0
  -35.8864    2.8439  -45.4900 C   0  0  0  0  0  0  0  0  0  0  0  0
  -37.1223    2.3616  -44.8006 C   0  0  0  0  0  0  0  0  0  0  0  0
  -36.8325    1.4236  -43.6596 C   0  0  0  0  0  0  0  0  0  0  0  0
  -36.5545    1.9701  -42.4945 C   0  0  0  0  0  0  0  0  0  0  0  0
  -36.5429    3.4752  -42.4008 C   0  0  0  0  0  0  0  0  0  0  0  0
  -35.0938    3.9573  -42.3386 C   0  0  0  0  0  0  0  0  0  0  0  0
  -31.8306    3.5653  -42.2962 X   0  0  0  0  0  0  0  0  0  0  0  0
  1  2  2  0  0  0  0
  1  3  1  0  0  0  0
  1 11  1  0  0  0  0
  3  4  1  0  0  0  0
  3 10  1  0  0  0  0
  4  5  1  0  0  0  0
  5  6  1  0  0  0  0
  6  7  1  0  0  0  0
  7  8  2  0  0  0  0
  8  9  1  0  0  0  0
  9 10  1  0  0  0  0
M  END
> <Index>
13018

> <PropertyFieldDistance>
nan

$$$$
3603120
BBcorina  12272117083D 1   1.00000     0.00000 
CORINA 4.3.0 0026  30.10.2019
  9  9  0  0  0  0  0  0  0  0999 V2000
  -37.3977    5.6282  -44.6607 C   0  0  0  0  0  0  0  0  0  0  0  0
  -36.6556    5.9850  -45.5441 O   0  0  0  0  0  0  0  0  0  0  0  0
  -37.0417    4.4335  -43.8141 C   0  0  0  0  0  0  0  0  0  0  0  0
  -36.4461    4.8928  -42.4648 C   0  0  0  0  0  0  0  0  0  0  0  0
  -34.9300    4.8797  -42.7686 C   0  0  0  0  0  0  0  0  0  0  0  0
  -34.7867    3.8840  -43.8986 C   0  0  0  0  0  0  0  0  0  0  0  0
  -33.7431    3.3729  -44.2458 O   0  0  0  0  0  0  0  0  0  0  0  0
  -35.9833    3.6528  -44.4655 N   0  0  0  0  0  0  0  0  0  0  0  0
  -38.9037    6.5086  -44.3604 X   0  0  0  0  0  0  0  0  0  0  0  0
  1  2  2  0  0  0  0
  1  3  1  0  0  0  0
  1  9  1  0  0  0  0
  3  4  1  0  0  0  0
  3  8  1  0  0  0  0
  4  5  1  0  0  0  0
  5  6  1  0  0  0  0
  6  7  2  0  0  0  0
  6  8  1  0  0  0  0
M  END
> <Index>
13168

> <PropertyFieldDistance>
nan

$$$$
7833406
BBcorina  12272117083D 1   1.00000     0.00000 
CORINA 4.3.0 0026  30.10.2019
  8  8  0  0  0  0  0  0  0  0999 V2000
  -33.7027    2.4016  -42.9307 C   0  0  0  0  0  0  0  0  0  0  0  0
  -33.6863    1.1941  -42.9374 O   0  0  0  0  0  0  0  0  0  0  0  0
  -35.0179    3.1373  -42.9205 C   0  0  0  0  0  0  0  0  0  0  0  0
  -35.1859    3.9286  -44.2321 C   0  0  0  0  0  0  0  0  0  0  0  0
  -36.4936    3.3723  -44.8461 C   0  0  0  0  0  0  0  0  0  0  0  0
  -37.1950    2.7535  -43.6102 C   0  0  0  0  0  0  0  0  0  0  0  0
  -36.1029    2.1977  -42.8428 O   0  0  0  0  0  0  0  0  0  0  0  0
  -32.1820    3.3074  -42.9404 X   0  0  0  0  0  0  0  0  0  0  0  0
  1  2  2  0  0  0  0
  1  3  1  0  0  0  0
  1  8  1  0  0  0  0
  3  4  1  0  0  0  0
  3  7  1  0  0  0  0
  4  5  1  0  0  0  0
  5  6  1  0  0  0  0
  6  7  1  0  0  0  0
M  END
> <Index>
13181

> <PropertyFieldDistance>
nan

$$$$
7944570
BBcorina  12272117083D 1   1.00000     0.00000 
CORINA 4.3.0 0026  30.10.2019
  8  8  0  0  0  0  0  0  0  0999 V2000
  -33.7027    2.4016  -42.9307 C   0  0  0  0  0  0  0  0  0  0  0  0
  -33.6863    1.1941  -42.9374 O   0  0  0  0  0  0  0  0  0  0  0  0
  -35.0179    3.1373  -42.9205 C   0  0  0  0  0  0  0  0  0  0  0  0
  -35.1859    3.9286  -44.2321 C   0  0  0  0  0  0  0  0  0  0  0  0
  -36.4936    3.3723  -44.8461 C   0  0  0  0  0  0  0  0  0  0  0  0
  -37.1950    2.7535  -43.6102 C   0  0  0  0  0  0  0  0  0  0  0  0
  -36.1029    2.1977  -42.8428 O   0  0  0  0  0  0  0  0  0  0  0  0
  -32.1820    3.3074  -42.9404 X   0  0  0  0  0  0  0  0  0  0  0  0
  1  2  2  0  0  0  0
  1  3  1  0  0  0  0
  1  8  1  0  0  0  0
  3  4  1  0  0  0  0
  3  7  1  0  0  0  0
  4  5  1  0  0  0  0
  5  6  1  0  0  0  0
  6  7  1  0  0  0  0
M  END
> <Index>
13182

> <PropertyFieldDistance>
nan

$$$$
13142088
BBcorina  12272117083D 1   1.00000     0.00000 
CORINA 4.3.0 0026  30.10.2019
  9  9  0  0  0  0  0  0  0  0999 V2000
  -36.4453    2.0840  -45.9533 C   0  0  0  0  0  0  0  0  0  0  0  0
  -36.1288    2.1088  -44.4566 C   0  0  0  0  0  0  0  0  0  0  0  0
  -35.8638    3.4909  -44.0350 N   0  0  0  0  0  0  0  0  0  0  0  0
  -37.1064    4.2983  -44.0444 C   0  0  0  0  0  0  0  0  0  0  0  0
  -36.6176    4.8800  -42.7056 C   0  0  0  0  0  0  0  0  0  0  0  0
  -35.7896    3.5905  -42.5606 C   0  0  0  0  0  0  0  0  0  0  0  0
  -34.3951    3.8199  -42.0370 C   0  0  0  0  0  0  0  0  0  0  0  0
  -33.4631    3.8693  -42.8032 O   0  0  0  0  0  0  0  0  0  0  0  0
  -34.1236    4.0170  -40.2992 X   0  0  0  0  0  0  0  0  0  0  0  0
  1  2  1  0  0  0  0
  2  3  1  0  0  0  0
  3  4  1  0  0  0  0
  3  6  1  0  0  0  0
  4  5  1  0  0  0  0
  5  6  1  0  0  0  0
  6  7  1  0  0  0  0
  7  8  2  0  0  0  0
  7  9  1  0  0  0  0
M  END
> <Index>
13231

> <PropertyFieldDistance>
nan

$$$$
8754948
BBcorina  12272117083D 1   1.00000     0.00000 
CORINA 4.3.0 0026  30.10.2019
 12 12  0  0  0  0  0  0  0  0999 V2000
  -34.6855    6.0377  -41.1408 C   0  0  0  0  0  0  0  0  0  0  0  0
  -35.1993    5.2146  -42.2385 N   0  0  0  0  0  0  0  0  0  0  0  0
  -36.6236    4.8939  -42.2622 C   0  0  0  0  0  0  0  0  0  0  0  0
  -37.0350    4.4379  -43.6634 C   0  0  0  0  0  0  0  0  0  0  0  0
  -36.1008    3.3932  -44.1133 N   0  0  0  0  0  0  0  0  0  0  0  0
  -36.6086    2.7140  -45.3129 C   0  0  0  0  0  0  0  0  0  0  0  0
  -35.7453    1.5163  -45.6154 C   0  0  0  0  0  0  0  0  0  0  0  0
  -34.8012    1.2583  -44.9079 O   0  0  0  0  0  0  0  0  0  0  0  0
  -34.7732    3.9723  -44.3585 C   0  0  0  0  0  0  0  0  0  0  0  0
  -34.3431    4.7902  -43.1737 C   0  0  0  0  0  0  0  0  0  0  0  0
  -33.1701    5.0770  -43.0607 O   0  0  0  0  0  0  0  0  0  0  0  0
  -36.1107    0.4920  -47.0118 X   0  0  0  0  0  0  0  0  0  0  0  0
  1  2  1  0  0  0  0
  2  3  1  0  0  0  0
  2 10  1  0  0  0  0
  3  4  1  0  0  0  0
  4  5  1  0  0  0  0
  5  6  1  0  0  0  0
  5  9  1  0  0  0  0
  6  7  1  0  0  0  0
  7  8  2  0  0  0  0
  7 12  1  0  0  0  0
  9 10  1  0  0  0  0
 10 11  2  0  0  0  0
M  END
> <Index>
13240

> <PropertyFieldDistance>
nan

$$$$
3391208
BBcorina  12272117083D 1   1.00000     0.00000 
CORINA 4.3.0 0026  30.10.2019
 13 13  0  0  0  0  0  0  0  0999 V2000
  -37.6391    0.3038  -44.6210 C   0  0  0  0  0  0  0  0  0  0  0  0
  -37.4718    1.7164  -44.3299 O   0  0  0  0  0  0  0  0  0  0  0  0
  -36.2421    2.2354  -44.5065 C   0  0  0  0  0  0  0  0  0  0  0  0
  -35.3335    1.5274  -44.8933 O   0  0  0  0  0  0  0  0  0  0  0  0
  -36.0188    3.5404  -44.2541 N   0  0  0  0  0  0  0  0  0  0  0  0
  -37.1072    4.4092  -43.7859 C   0  0  0  0  0  0  0  0  0  0  0  0
  -36.6609    5.1080  -42.4978 C   0  0  0  0  0  0  0  0  0  0  0  0
  -35.3388    5.8368  -42.7493 C   0  0  0  0  0  0  0  0  0  0  0  0
  -34.2632    4.8233  -43.1467 C   0  0  0  0  0  0  0  0  0  0  0  0
  -34.6824    4.1213  -44.4422 C   0  0  0  0  0  0  0  0  0  0  0  0
  -32.9537    5.5372  -43.3625 C   0  0  0  0  0  0  0  0  0  0  0  0
  -32.8860    6.7334  -43.2114 O   0  0  0  0  0  0  0  0  0  0  0  0
  -31.5148    4.6224  -43.8375 X   0  0  0  0  0  0  0  0  0  0  0  0
  1  2  1  0  0  0  0
  2  3  1  0  0  0  0
  3  4  2  0  0  0  0
  3  5  1  0  0  0  0
  5  6  1  0  0  0  0
  5 10  1  0  0  0  0
  6  7  1  0  0  0  0
  7  8  1  0  0  0  0
  8  9  1  0  0  0  0
  9 10  1  0  0  0  0
  9 11  1  0  0  0  0
 11 12  2  0  0  0  0
 11 13  1  0  0  0  0
M  END
> <Index>
13295

> <PropertyFieldDistance>
nan

$$$$
14468632
BBcorina  12272117083D 1   1.00000     0.00000 
CORINA 4.3.0 0026  30.10.2019
 12 12  0  0  0  0  0  0  0  0999 V2000
  -36.2448    2.3530  -46.0356 C   0  0  0  0  0  0  0  0  0  0  0  0
  -36.2137    1.9910  -44.5493 C   0  0  0  0  0  0  0  0  0  0  0  0
  -35.8985    3.1890  -43.7600 N   0  0  0  0  0  0  0  0  0  0  0  0
  -37.0253    4.1332  -43.7626 C   0  0  0  0  0  0  0  0  0  0  0  0
  -36.6780    5.3365  -42.8819 C   0  0  0  0  0  0  0  0  0  0  0  0
  -35.4690    5.9351  -43.3568 O   0  0  0  0  0  0  0  0  0  0  0  0
  -34.3507    5.0436  -43.3671 C   0  0  0  0  0  0  0  0  0  0  0  0
  -34.6745    3.8375  -44.2526 C   0  0  0  0  0  0  0  0  0  0  0  0
  -33.5139    2.8418  -44.2040 C   0  0  0  0  0  0  0  0  0  0  0  0
  -32.2975    3.4563  -44.8475 C   0  0  0  0  0  0  0  0  0  0  0  0
  -32.3822    4.5274  -45.3986 O   0  0  0  0  0  0  0  0  0  0  0  0
  -30.7449    2.6080  -44.7954 X   0  0  0  0  0  0  0  0  0  0  0  0
  1  2  1  0  0  0  0
  2  3  1  0  0  0  0
  3  4  1  0  0  0  0
  3  8  1  0  0  0  0
  4  5  1  0  0  0  0
  5  6  1  0  0  0  0
  6  7  1  0  0  0  0
  7  8  1  0  0  0  0
  8  9  1  0  0  0  0
  9 10  1  0  0  0  0
 10 11  2  0  0  0  0
 10 12  1  0  0  0  0
M  END
> <Index>
13323

> <PropertyFieldDistance>
nan

$$$$
15066044
BBcorina  12272117083D 1   1.00000     0.00000 
CORINA 4.3.0 0026  30.10.2019
 13 14  0  0  0  0  0  0  0  0999 V2000
  -36.3044    2.5074  -45.1332 C   0  0  0  0  0  0  0  0  0  0  0  0
  -36.0419    3.1972  -43.8631 N   0  0  0  0  0  0  0  0  0  0  0  0
  -37.1128    4.1705  -43.5574 C   0  0  0  0  0  0  0  0  0  0  0  0
  -36.3580    5.2684  -42.7730 C   0  0  0  0  0  0  0  0  0  0  0  0
  -34.9365    5.1271  -43.2799 C   0  0  0  0  0  0  0  0  0  0  0  0
  -33.8502    5.9727  -43.2051 C   0  0  0  0  0  0  0  0  0  0  0  0
  -32.6411    5.5993  -43.7642 C   0  0  0  0  0  0  0  0  0  0  0  0
  -32.5239    4.3765  -44.3989 C   0  0  0  0  0  0  0  0  0  0  0  0
  -33.6073    3.5261  -44.4749 C   0  0  0  0  0  0  0  0  0  0  0  0
  -34.8280    3.8936  -43.9117 C   0  0  0  0  0  0  0  0  0  0  0  0
  -38.1802    3.5396  -42.7009 C   0  0  0  0  0  0  0  0  0  0  0  0
  -37.9771    2.4738  -42.1706 O   0  0  0  0  0  0  0  0  0  0  0  0
  -39.7342    4.3571  -42.4783 X   0  0  0  0  0  0  0  0  0  0  0  0
  1  2  1  0  0  0  0
  2  3  1  0  0  0  0
  2 10  1  0  0  0  0
  3  4  1  0  0  0  0
  3 11  1  0  0  0  0
  4  5  1  0  0  0  0
  5  6  2  0  0  0  0
  5 10  1  0  0  0  0
  6  7  1  0  0  0  0
  7  8  2  0  0  0  0
  8  9  1  0  0  0  0
  9 10  2  0  0  0  0
 11 12  2  0  0  0  0
 11 13  1  0  0  0  0
M  END
> <Index>
13370

> <PropertyFieldDistance>
nan

$$$$
15419152
BBcorina  12272117083D 1   1.00000     0.00000 
CORINA 4.3.0 0026  30.10.2019
 12 13  0  0  0  0  0  0  0  0999 V2000
  -35.0976    1.2620  -42.6191 C   0  0  0  0  0  0  0  0  0  0  0  0
  -34.2386    0.6732  -43.2303 O   0  0  0  0  0  0  0  0  0  0  0  0
  -35.1181    2.7689  -42.6108 C   0  0  0  0  0  0  0  0  0  0  0  0
  -33.6753    3.3223  -42.6084 C   0  0  0  0  0  0  0  0  0  0  0  0
  -33.7422    4.5598  -43.4983 C   0  0  0  0  0  0  0  0  0  0  0  0
  -33.1745    5.6159  -43.3551 O   0  0  0  0  0  0  0  0  0  0  0  0
  -34.6995    4.1435  -44.6127 C   0  0  0  0  0  0  0  0  0  0  0  0
  -35.7616    3.2966  -43.8975 C   0  0  0  0  0  0  0  0  0  0  0  0
  -36.4531    2.2452  -44.7664 C   0  0  0  0  0  0  0  0  0  0  0  0
  -37.5232    3.3130  -45.0570 C   0  0  0  0  0  0  0  0  0  0  0  0
  -37.1242    3.9690  -43.7229 C   0  0  0  0  0  0  0  0  0  0  0  0
  -36.3327    0.3553  -41.7329 X   0  0  0  0  0  0  0  0  0  0  0  0
  1  2  2  0  0  0  0
  1  3  1  0  0  0  0
  1 12  1  0  0  0  0
  3  4  1  0  0  0  0
  3  8  1  0  0  0  0
  4  5  1  0  0  0  0
  5  6  2  0  0  0  0
  5  7  1  0  0  0  0
  7  8  1  0  0  0  0
  8  9  1  0  0  0  0
  8 11  1  0  0  0  0
  9 10  1  0  0  0  0
 10 11  1  0  0  0  0
M  END
> <Index>
13385

> <PropertyFieldDistance>
nan

$$$$
17834060
BBcorina  12272117083D 1   1.00000     0.00000 
CORINA 4.3.0 0026  30.10.2019
 12 13  0  0  0  0  0  0  0  0999 V2000
  -34.9374    5.9821  -41.0024 C   0  0  0  0  0  0  0  0  0  0  0  0
  -33.9397    6.6515  -41.1243 O   0  0  0  0  0  0  0  0  0  0  0  0
  -35.2736    4.9360  -42.0337 C   0  0  0  0  0  0  0  0  0  0  0  0
  -36.6301    5.2587  -42.6669 C   0  0  0  0  0  0  0  0  0  0  0  0
  -37.0829    4.0823  -43.5396 C   0  0  0  0  0  0  0  0  0  0  0  0
  -35.9879    3.7141  -44.4366 N   0  0  0  0  0  0  0  0  0  0  0  0
  -36.0292    2.9723  -45.5601 C   0  0  0  0  0  0  0  0  0  0  0  0
  -34.8074    2.9090  -46.0237 N   0  0  0  0  0  0  0  0  0  0  0  0
  -34.0153    3.5761  -45.2559 N   0  0  0  0  0  0  0  0  0  0  0  0
  -34.6923    4.0821  -44.2703 C   0  0  0  0  0  0  0  0  0  0  0  0
  -34.1941    4.9264  -43.1244 C   0  0  0  0  0  0  0  0  0  0  0  0
  -36.0050    6.2298  -39.6124 X   0  0  0  0  0  0  0  0  0  0  0  0
  1  2  2  0  0  0  0
  1  3  1  0  0  0  0
  1 12  1  0  0  0  0
  3  4  1  0  0  0  0
  3 11  1  0  0  0  0
  4  5  1  0  0  0  0
  5  6  1  0  0  0  0
  6  7  1  0  0  0  0
  6 10  1  0  0  0  0
  7  8  2  0  0  0  0
  8  9  1  0  0  0  0
  9 10  2  0  0  0  0
 10 11  1  0  0  0  0
M  END
> <Index>
13408

> <PropertyFieldDistance>
nan

$$$$
9818736
BBcorina  12272117083D 1   1.00000     0.00000 
CORINA 4.3.0 0026  30.10.2019
 14 14  0  0  0  0  0  0  0  0999 V2000
  -35.1317    0.6548  -44.5055 C   0  0  0  0  0  0  0  0  0  0  0  0
  -35.5924    1.5810  -45.6328 C   0  0  0  0  0  0  0  0  0  0  0  0
  -36.6710    2.5292  -45.1053 C   0  0  0  0  0  0  0  0  0  0  0  0
  -36.1065    3.3691  -44.0406 N   0  0  0  0  0  0  0  0  0  0  0  0
  -37.0856    4.3642  -43.5796 C   0  0  0  0  0  0  0  0  0  0  0  0
  -36.4784    5.1764  -42.4325 C   0  0  0  0  0  0  0  0  0  0  0  0
  -35.2602    5.7805  -42.8757 O   0  0  0  0  0  0  0  0  0  0  0  0
  -34.2836    4.8402  -43.3311 C   0  0  0  0  0  0  0  0  0  0  0  0
  -33.0391    5.5888  -43.8125 C   0  0  0  0  0  0  0  0  0  0  0  0
  -32.3860    6.3061  -42.6293 C   0  0  0  0  0  0  0  0  0  0  0  0
  -34.8680    4.0237  -44.4870 C   0  0  0  0  0  0  0  0  0  0  0  0
  -37.1630    3.4049  -46.2286 C   0  0  0  0  0  0  0  0  0  0  0  0
  -36.6574    4.4851  -46.4179 O   0  0  0  0  0  0  0  0  0  0  0  0
  -38.4821    2.8505  -47.2705 X   0  0  0  0  0  0  0  0  0  0  0  0
  1  2  1  0  0  0  0
  2  3  1  0  0  0  0
  3  4  1  0  0  0  0
  3 12  1  0  0  0  0
  4  5  1  0  0  0  0
  4 11  1  0  0  0  0
  5  6  1  0  0  0  0
  6  7  1  0  0  0  0
  7  8  1  0  0  0  0
  8  9  1  0  0  0  0
  8 11  1  0  0  0  0
  9 10  1  0  0  0  0
 12 13  2  0  0  0  0
 12 14  1  0  0  0  0
M  END
> <Index>
13418

> <PropertyFieldDistance>
nan

$$$$
16466068
BBcorina  12272117083D 1   1.00000     0.00000 
CORINA 4.3.0 0026  30.10.2019
 12 13  0  0  0  0  0  0  0  0999 V2000
  -32.1948    3.0421  -42.7148 C   0  0  0  0  0  0  0  0  0  0  0  0
  -31.1887    3.6550  -43.0048 O   0  0  0  0  0  0  0  0  0  0  0  0
  -33.3344    3.0315  -43.6314 C   0  0  0  0  0  0  0  0  0  0  0  0
  -33.5925    3.5700  -44.8257 C   0  0  0  0  0  0  0  0  0  0  0  0
  -34.9865    3.0260  -44.9954 C   0  0  0  0  0  0  0  0  0  0  0  0
  -36.0722    4.1031  -44.9461 C   0  0  0  0  0  0  0  0  0  0  0  0
  -37.4454    3.4343  -44.8958 C   0  0  0  0  0  0  0  0  0  0  0  0
  -37.9230    3.3018  -43.4568 C   0  0  0  0  0  0  0  0  0  0  0  0
  -37.0090    2.3938  -42.6457 C   0  0  0  0  0  0  0  0  0  0  0  0
  -35.6065    2.9862  -42.5200 C   0  0  0  0  0  0  0  0  0  0  0  0
  -34.7080    2.4067  -43.6217 C   0  0  0  0  0  0  0  0  0  0  0  0
  -32.2834    2.1609  -41.1823 X   0  0  0  0  0  0  0  0  0  0  0  0
  1  2  2  0  0  0  0
  1  3  1  0  0  0  0
  1 12  1  0  0  0  0
  3  4  2  0  0  0  0
  3 11  1  0  0  0  0
  4  5  1  0  0  0  0
  5  6  1  0  0  0  0
  5 11  1  0  0  0  0
  6  7  1  0  0  0  0
  7  8  1  0  0  0  0
  8  9  1  0  0  0  0
  9 10  1  0  0  0  0
 10 11  1  0  0  0  0
M  END
> <Index>
13425

> <PropertyFieldDistance>
nan

$$$$
15260602
BBcorina  12272117083D 1   1.00000     0.00000 
CORINA 4.3.0 0026  30.10.2019
 12 13  0  0  0  0  0  0  0  0999 V2000
  -38.6963    4.0923  -44.0257 C   0  0  0  0  0  0  0  0  0  0  0  0
  -39.2904    3.5246  -43.1408 O   0  0  0  0  0  0  0  0  0  0  0  0
  -37.1976    4.2346  -43.9565 C   0  0  0  0  0  0  0  0  0  0  0  0
  -36.6808    3.5765  -42.6738 C   0  0  0  0  0  0  0  0  0  0  0  0
  -35.1529    3.6969  -42.6323 C   0  0  0  0  0  0  0  0  0  0  0  0
  -34.5743    3.1040  -43.9163 C   0  0  0  0  0  0  0  0  0  0  0  0
  -34.5535    1.5699  -43.9248 C   0  0  0  0  0  0  0  0  0  0  0  0
  -33.1588    1.6666  -43.2827 C   0  0  0  0  0  0  0  0  0  0  0  0
  -33.0412    3.0567  -43.9312 C   0  0  0  0  0  0  0  0  0  0  0  0
  -35.1401    3.6726  -45.0951 O   0  0  0  0  0  0  0  0  0  0  0  0
  -36.5634    3.5510  -45.1701 C   0  0  0  0  0  0  0  0  0  0  0  0
  -39.5856    4.7573  -45.4040 X   0  0  0  0  0  0  0  0  0  0  0  0
  1  2  2  0  0  0  0
  1  3  1  0  0  0  0
  1 12  1  0  0  0  0
  3  4  1  0  0  0  0
  3 11  1  0  0  0  0
  4  5  1  0  0  0  0
  5  6  1  0  0  0  0
  6  7  1  0  0  0  0
  6  9  1  0  0  0  0
  6 10  1  0  0  0  0
  7  8  1  0  0  0  0
  8  9  1  0  0  0  0
 10 11  1  0  0  0  0
M  END
> <Index>
13441

> <PropertyFieldDistance>
nan

$$$$
15344894
BBcorina  12272117083D 1   1.00000     0.00000 
CORINA 4.3.0 0026  30.10.2019
 16 17  0  0  0  0  0  0  0  0999 V2000
  -37.0027    1.6627  -45.3704 C   0  0  0  0  0  0  0  0  0  0  0  0
  -37.3992    1.3594  -44.2709 O   0  0  0  0  0  0  0  0  0  0  0  0
  -35.9432    2.7235  -45.5232 C   0  0  0  0  0  0  0  0  0  0  0  0
  -35.6702    3.3349  -44.2156 N   0  0  0  0  0  0  0  0  0  0  0  0
  -36.8380    4.0834  -43.7303 C   0  0  0  0  0  0  0  0  0  0  0  0
  -36.5418    4.6366  -42.3342 C   0  0  0  0  0  0  0  0  0  0  0  0
  -35.3540    5.5000  -42.3942 N   0  0  0  0  0  0  0  0  0  0  0  0
  -34.1864    4.7514  -42.8797 C   0  0  0  0  0  0  0  0  0  0  0  0
  -34.4826    4.1983  -44.2756 C   0  0  0  0  0  0  0  0  0  0  0  0
  -35.0955    6.0792  -41.1555 C   0  0  0  0  0  0  0  0  0  0  0  0
  -34.0115    6.9392  -40.9799 C   0  0  0  0  0  0  0  0  0  0  0  0
  -33.7898    7.4924  -39.7365 C   0  0  0  0  0  0  0  0  0  0  0  0
  -34.5874    7.2173  -38.7213 N   0  0  0  0  0  0  0  0  0  0  0  0
  -35.6230    6.4087  -38.8471 C   0  0  0  0  0  0  0  0  0  0  0  0
  -35.9169    5.8194  -40.0586 C   0  0  0  0  0  0  0  0  0  0  0  0
  -37.6606    0.8564  -46.8021 X   0  0  0  0  0  0  0  0  0  0  0  0
  1  2  2  0  0  0  0
  1  3  1  0  0  0  0
  1 16  1  0  0  0  0
  3  4  1  0  0  0  0
  4  5  1  0  0  0  0
  4  9  1  0  0  0  0
  5  6  1  0  0  0  0
  6  7  1  0  0  0  0
  7  8  1  0  0  0  0
  7 10  1  0  0  0  0
  8  9  1  0  0  0  0
 10 11  2  0  0  0  0
 10 15  1  0  0  0  0
 11 12  1  0  0  0  0
 12 13  2  0  0  0  0
 13 14  1  0  0  0  0
 14 15  2  0  0  0  0
M  END
> <Index>
13442

> <PropertyFieldDistance>
nan

$$$$
13654590
BBcorina  12272117083D 1   1.00000     0.00000 
CORINA 4.3.0 0026  30.10.2019
 11 12  0  0  0  0  0  0  0  0999 V2000
  -34.4453    0.2494  -44.2961 C   0  0  0  0  0  0  0  0  0  0  0  0
  -33.4078    0.8674  -44.3027 O   0  0  0  0  0  0  0  0  0  0  0  0
  -35.7605    0.9851  -44.2859 C   0  0  0  0  0  0  0  0  0  0  0  0
  -35.5014    2.4930  -44.2789 C   0  0  0  0  0  0  0  0  0  0  0  0
  -34.8147    2.8912  -42.9675 C   0  0  0  0  0  0  0  0  0  0  0  0
  -34.2547    4.3044  -43.1188 C   0  0  0  0  0  0  0  0  0  0  0  0
  -35.3463    5.2701  -43.5528 C   0  0  0  0  0  0  0  0  0  0  0  0
  -36.6730    5.2998  -42.8052 C   0  0  0  0  0  0  0  0  0  0  0  0
  -36.5992    4.7449  -44.2361 C   0  0  0  0  0  0  0  0  0  0  0  0
  -36.8295    3.2426  -44.3850 C   0  0  0  0  0  0  0  0  0  0  0  0
  -34.4213   -1.5204  -44.3059 X   0  0  0  0  0  0  0  0  0  0  0  0
  1  2  2  0  0  0  0
  1  3  1  0  0  0  0
  1 11  1  0  0  0  0
  3  4  1  0  0  0  0
  4  5  1  0  0  0  0
  4 10  1  0  0  0  0
  5  6  1  0  0  0  0
  6  7  1  0  0  0  0
  7  8  1  0  0  0  0
  7  9  1  0  0  0  0
  8  9  1  0  0  0  0
  9 10  1  0  0  0  0
M  END
> <Index>
13460

> <PropertyFieldDistance>
nan

$$$$
15084616
BBcorina  12272117083D 1   1.00000     0.00000 
CORINA 4.3.0 0026  30.10.2019
 13 14  0  0  0  0  0  0  0  0999 V2000
  -32.9846    5.6463  -43.4900 C   0  0  0  0  0  0  0  0  0  0  0  0
  -32.3613    5.3369  -44.4769 O   0  0  0  0  0  0  0  0  0  0  0  0
  -34.3075    4.9867  -43.1968 C   0  0  0  0  0  0  0  0  0  0  0  0
  -35.4123    6.0489  -43.1475 C   0  0  0  0  0  0  0  0  0  0  0  0
  -36.7044    5.3812  -42.6704 C   0  0  0  0  0  0  0  0  0  0  0  0
  -36.9498    4.1241  -43.4545 C   0  0  0  0  0  0  0  0  0  0  0  0
  -38.0641    3.6456  -43.4380 O   0  0  0  0  0  0  0  0  0  0  0  0
  -36.0066    3.5030  -44.1637 N   0  0  0  0  0  0  0  0  0  0  0  0
  -34.6388    3.9866  -44.3051 C   0  0  0  0  0  0  0  0  0  0  0  0
  -36.3677    2.2562  -44.8427 C   0  0  0  0  0  0  0  0  0  0  0  0
  -36.3505    2.2543  -46.3726 C   0  0  0  0  0  0  0  0  0  0  0  0
  -35.2601    1.5144  -45.5937 C   0  0  0  0  0  0  0  0  0  0  0  0
  -32.3446    6.8745  -42.3879 X   0  0  0  0  0  0  0  0  0  0  0  0
  1  2  2  0  0  0  0
  1  3  1  0  0  0  0
  1 13  1  0  0  0  0
  3  4  1  0  0  0  0
  3  9  1  0  0  0  0
  4  5  1  0  0  0  0
  5  6  1  0  0  0  0
  6  7  2  0  0  0  0
  6  8  1  0  0  0  0
  8  9  1  0  0  0  0
  8 10  1  0  0  0  0
 10 11  1  0  0  0  0
 10 12  1  0  0  0  0
 11 12  1  0  0  0  0
M  END
> <Index>
13491

> <PropertyFieldDistance>
nan

$$$$
15414820
BBcorina  12272117083D 1   1.00000     0.00000 
CORINA 4.3.0 0026  30.10.2019
 10 10  0  0  0  0  0  0  0  0999 V2000
  -36.3545    2.8464  -45.4953 O   0  0  0  0  0  0  0  0  0  0  0  0
  -36.0194    3.9412  -44.5845 N   0  0  0  0  0  0  0  0  0  0  0  0
  -36.9723    4.0084  -43.4693 C   0  0  0  0  0  0  0  0  0  0  0  0
  -36.6796    5.2477  -42.6204 C   0  0  0  0  0  0  0  0  0  0  0  0
  -35.2463    5.1683  -42.0875 C   0  0  0  0  0  0  0  0  0  0  0  0
  -34.2763    5.0495  -43.2662 C   0  0  0  0  0  0  0  0  0  0  0  0
  -34.6397    3.8168  -44.0973 C   0  0  0  0  0  0  0  0  0  0  0  0
  -33.7006    3.7078  -45.2708 C   0  0  0  0  0  0  0  0  0  0  0  0
  -34.0531    4.0833  -46.3631 O   0  0  0  0  0  0  0  0  0  0  0  0
  -32.0810    3.0294  -45.0483 X   0  0  0  0  0  0  0  0  0  0  0  0
  1  2  1  0  0  0  0
  2  3  1  0  0  0  0
  2  7  1  0  0  0  0
  3  4  1  0  0  0  0
  4  5  1  0  0  0  0
  5  6  1  0  0  0  0
  6  7  1  0  0  0  0
  7  8  1  0  0  0  0
  8  9  2  0  0  0  0
  8 10  1  0  0  0  0
M  END
> <Index>
13497

> <PropertyFieldDistance>
nan

$$$$
15366220
BBcorina  12272117083D 1   1.00000     0.00000 
CORINA 4.3.0 0026  30.10.2019
 12 13  0  0  0  0  0  0  0  0999 V2000
  -36.5296    3.3121  -41.4917 F   0  0  0  0  0  0  0  0  0  0  0  0
  -35.5897    2.3365  -41.8409 C   0  0  0  0  0  0  0  0  0  0  0  0
  -35.3367    1.3644  -40.8672 F   0  0  0  0  0  0  0  0  0  0  0  0
  -34.4173    2.7675  -42.7363 C   0  0  0  0  0  0  0  0  0  0  0  0
  -34.3456    4.2517  -43.0625 C   0  0  0  0  0  0  0  0  0  0  0  0
  -35.1411    4.5996  -44.3087 C   0  0  0  0  0  0  0  0  0  0  0  0
  -36.5270    3.9934  -44.2988 C   0  0  0  0  0  0  0  0  0  0  0  0
  -36.5064    2.4794  -44.3071 C   0  0  0  0  0  0  0  0  0  0  0  0
  -35.5336    1.9033  -43.2996 C   0  0  0  0  0  0  0  0  0  0  0  0
  -36.1162    2.0055  -45.6834 C   0  0  0  0  0  0  0  0  0  0  0  0
  -35.1263    1.3298  -45.8312 O   0  0  0  0  0  0  0  0  0  0  0  0
  -37.1087    2.4394  -47.0832 X   0  0  0  0  0  0  0  0  0  0  0  0
  1  2  1  0  0  0  0
  2  3  1  0  0  0  0
  2  4  1  0  0  0  0
  2  9  1  0  0  0  0
  4  5  1  0  0  0  0
  4  9  1  0  0  0  0
  5  6  1  0  0  0  0
  6  7  1  0  0  0  0
  7  8  1  0  0  0  0
  8  9  1  0  0  0  0
  8 10  1  0  0  0  0
 10 11  2  0  0  0  0
 10 12  1  0  0  0  0
M  END
> <Index>
13557

> <PropertyFieldDistance>
nan

$$$$
11678536
BBcorina  12272117083D 1   1.00000     0.00000 
CORINA 4.3.0 0026  30.10.2019
 16 16  0  0  0  0  0  0  0  0999 V2000
  -36.7684   -0.0290  -46.2392 C   0  0  0  0  0  0  0  0  0  0  0  0
  -35.7268    0.0102  -45.1192 C   0  0  0  0  0  0  0  0  0  0  0  0
  -34.5003   -0.8049  -45.5344 C   0  0  0  0  0  0  0  0  0  0  0  0
  -36.3267   -0.5848  -43.8437 C   0  0  0  0  0  0  0  0  0  0  0  0
  -35.3326    1.3859  -44.8727 O   0  0  0  0  0  0  0  0  0  0  0  0
  -36.3017    2.2410  -44.4955 C   0  0  0  0  0  0  0  0  0  0  0  0
  -37.4446    1.8476  -44.3709 O   0  0  0  0  0  0  0  0  0  0  0  0
  -36.0031    3.5324  -44.2509 N   0  0  0  0  0  0  0  0  0  0  0  0
  -37.0415    4.4941  -43.8428 C   0  0  0  0  0  0  0  0  0  0  0  0
  -36.6834    5.0007  -42.4378 C   0  0  0  0  0  0  0  0  0  0  0  0
  -35.2286    5.3589  -42.3666 C   0  0  0  0  0  0  0  0  0  0  0  0
  -34.3152    4.9316  -43.2192 C   0  0  0  0  0  0  0  0  0  0  0  0
  -34.6297    4.0379  -44.3868 C   0  0  0  0  0  0  0  0  0  0  0  0
  -34.7934    6.2391  -41.2826 C   0  0  0  0  0  0  0  0  0  0  0  0
  -33.6254    6.5539  -41.1886 O   0  0  0  0  0  0  0  0  0  0  0  0
  -35.9705    6.8450  -40.1079 X   0  0  0  0  0  0  0  0  0  0  0  0
  1  2  1  0  0  0  0
  2  3  1  0  0  0  0
  2  4  1  0  0  0  0
  2  5  1  0  0  0  0
  5  6  1  0  0  0  0
  6  7  2  0  0  0  0
  6  8  1  0  0  0  0
  8  9  1  0  0  0  0
  8 13  1  0  0  0  0
  9 10  1  0  0  0  0
 10 11  1  0  0  0  0
 11 12  2  0  0  0  0
 11 14  1  0  0  0  0
 12 13  1  0  0  0  0
 14 15  2  0  0  0  0
 14 16  1  0  0  0  0
M  END
> <Index>
13587

> <PropertyFieldDistance>
nan

$$$$
15066078
BBcorina  12272117083D 1   1.00000     0.00000 
CORINA 4.3.0 0026  30.10.2019
 14 14  0  0  0  0  0  0  0  0999 V2000
  -35.6091    2.6890  -47.3470 C   0  0  0  0  0  0  0  0  0  0  0  0
  -35.7037    2.0110  -46.0045 C   0  0  0  0  0  0  0  0  0  0  0  0
  -34.9801    0.9231  -45.7565 C   0  0  0  0  0  0  0  0  0  0  0  0
  -36.5964    2.5525  -44.9683 C   0  0  0  0  0  0  0  0  0  0  0  0
  -37.7870    2.3068  -45.0024 O   0  0  0  0  0  0  0  0  0  0  0  0
  -36.0948    3.3208  -43.9811 N   0  0  0  0  0  0  0  0  0  0  0  0
  -36.9865    3.9613  -43.0045 C   0  0  0  0  0  0  0  0  0  0  0  0
  -36.6865    5.4632  -42.9695 C   0  0  0  0  0  0  0  0  0  0  0  0
  -35.1952    5.6750  -42.6968 C   0  0  0  0  0  0  0  0  0  0  0  0
  -34.3714    5.0407  -43.8200 C   0  0  0  0  0  0  0  0  0  0  0  0
  -34.6461    3.5343  -43.8612 C   0  0  0  0  0  0  0  0  0  0  0  0
  -34.9021    7.1517  -42.6315 C   0  0  0  0  0  0  0  0  0  0  0  0
  -35.7926    7.9517  -42.7904 O   0  0  0  0  0  0  0  0  0  0  0  0
  -33.2524    7.7136  -42.3216 X   0  0  0  0  0  0  0  0  0  0  0  0
  1  2  1  0  0  0  0
  2  3  2  0  0  0  0
  2  4  1  0  0  0  0
  4  5  2  0  0  0  0
  4  6  1  0  0  0  0
  6  7  1  0  0  0  0
  6 11  1  0  0  0  0
  7  8  1  0  0  0  0
  8  9  1  0  0  0  0
  9 10  1  0  0  0  0
  9 12  1  0  0  0  0
 10 11  1  0  0  0  0
 12 13  2  0  0  0  0
 12 14  1  0  0  0  0
M  END
> <Index>
13599

> <PropertyFieldDistance>
nan

$$$$
10894554
BBcorina  12272117083D 1   1.00000     0.00000 
CORINA 4.3.0 0026  30.10.2019
 12 13  0  0  0  0  0  0  0  0999 V2000
  -34.9383    5.9824  -41.0017 C   0  0  0  0  0  0  0  0  0  0  0  0
  -33.9386    6.6492  -41.1218 O   0  0  0  0  0  0  0  0  0  0  0  0
  -35.2745    4.9361  -42.0329 C   0  0  0  0  0  0  0  0  0  0  0  0
  -36.6305    5.2598  -42.6667 C   0  0  0  0  0  0  0  0  0  0  0  0
  -37.0818    4.0826  -43.5381 C   0  0  0  0  0  0  0  0  0  0  0  0
  -35.9861    3.7138  -44.4374 N   0  0  0  0  0  0  0  0  0  0  0  0
  -36.0550    2.9650  -45.5743 C   0  0  0  0  0  0  0  0  0  0  0  0
  -34.8011    2.8896  -46.0650 C   0  0  0  0  0  0  0  0  0  0  0  0
  -33.9920    3.5844  -45.2489 N   0  0  0  0  0  0  0  0  0  0  0  0
  -34.6930    4.0806  -44.2717 C   0  0  0  0  0  0  0  0  0  0  0  0
  -34.1959    4.9268  -43.1237 C   0  0  0  0  0  0  0  0  0  0  0  0
  -36.0086    6.2339  -39.6147 X   0  0  0  0  0  0  0  0  0  0  0  0
  1  2  2  0  0  0  0
  1  3  1  0  0  0  0
  1 12  1  0  0  0  0
  3  4  1  0  0  0  0
  3 11  1  0  0  0  0
  4  5  1  0  0  0  0
  5  6  1  0  0  0  0
  6  7  1  0  0  0  0
  6 10  1  0  0  0  0
  7  8  2  0  0  0  0
  8  9  1  0  0  0  0
  9 10  2  0  0  0  0
 10 11  1  0  0  0  0
M  END
> <Index>
13628

> <PropertyFieldDistance>
nan

$$$$
16784472
BBcorina  12272117083D 1   1.00000     0.00000 
CORINA 4.3.0 0026  30.10.2019
 12 13  0  0  0  0  0  0  0  0999 V2000
  -36.6786    1.5063  -47.0343 C   0  0  0  0  0  0  0  0  0  0  0  0
  -36.6016    0.3551  -46.6778 O   0  0  0  0  0  0  0  0  0  0  0  0
  -36.4464    2.6189  -46.0447 C   0  0  0  0  0  0  0  0  0  0  0  0
  -36.1332    2.0223  -44.6710 C   0  0  0  0  0  0  0  0  0  0  0  0
  -35.3444    0.7120  -44.6330 C   0  0  0  0  0  0  0  0  0  0  0  0
  -36.8362    0.7178  -44.2904 C   0  0  0  0  0  0  0  0  0  0  0  0
  -35.8834    2.9958  -43.5996 N   0  0  0  0  0  0  0  0  0  0  0  0
  -37.0451    3.8841  -43.4113 C   0  0  0  0  0  0  0  0  0  0  0  0
  -36.5482    5.3350  -43.5830 C   0  0  0  0  0  0  0  0  0  0  0  0
  -35.0249    5.2158  -43.2999 C   0  0  0  0  0  0  0  0  0  0  0  0
  -34.6996    3.8273  -43.9047 C   0  0  0  0  0  0  0  0  0  0  0  0
  -37.0642    1.8868  -48.7194 X   0  0  0  0  0  0  0  0  0  0  0  0
  1  2  2  0  0  0  0
  1  3  1  0  0  0  0
  1 12  1  0  0  0  0
  3  4  1  0  0  0  0
  4  5  1  0  0  0  0
  4  6  1  0  0  0  0
  4  7  1  0  0  0  0
  5  6  1  0  0  0  0
  7  8  1  0  0  0  0
  7 11  1  0  0  0  0
  8  9  1  0  0  0  0
  9 10  1  0  0  0  0
 10 11  1  0  0  0  0
M  END
> <Index>
13644

> <PropertyFieldDistance>
nan

$$$$
15070810
BBcorina  12272117083D 1   1.00000     0.00000 
CORINA 4.3.0 0026  30.10.2019
 12 13  0  0  0  0  0  0  0  0999 V2000
  -38.2861    4.4883  -44.3508 C   0  0  0  0  0  0  0  0  0  0  0  0
  -38.7377    5.6033  -44.2444 O   0  0  0  0  0  0  0  0  0  0  0  0
  -37.0829    4.0822  -43.5395 C   0  0  0  0  0  0  0  0  0  0  0  0
  -36.6302    5.2587  -42.6669 C   0  0  0  0  0  0  0  0  0  0  0  0
  -35.2736    4.9360  -42.0337 C   0  0  0  0  0  0  0  0  0  0  0  0
  -34.1940    4.9264  -43.1244 C   0  0  0  0  0  0  0  0  0  0  0  0
  -34.6922    4.0821  -44.2703 C   0  0  0  0  0  0  0  0  0  0  0  0
  -34.0153    3.5759  -45.2557 N   0  0  0  0  0  0  0  0  0  0  0  0
  -34.8083    2.9133  -46.0265 N   0  0  0  0  0  0  0  0  0  0  0  0
  -36.0292    2.9721  -45.5598 C   0  0  0  0  0  0  0  0  0  0  0  0
  -35.9879    3.7142  -44.4366 N   0  0  0  0  0  0  0  0  0  0  0  0
  -39.0376    3.3313  -45.4595 X   0  0  0  0  0  0  0  0  0  0  0  0
  1  2  2  0  0  0  0
  1  3  1  0  0  0  0
  1 12  1  0  0  0  0
  3  4  1  0  0  0  0
  3 11  1  0  0  0  0
  4  5  1  0  0  0  0
  5  6  1  0  0  0  0
  6  7  1  0  0  0  0
  7  8  2  0  0  0  0
  7 11  1  0  0  0  0
  8  9  1  0  0  0  0
  9 10  2  0  0  0  0
 10 11  1  0  0  0  0
M  END
> <Index>
13691

> <PropertyFieldDistance>
nan

$$$$
10894284
BBcorina  12272117083D 1   1.00000     0.00000 
CORINA 4.3.0 0026  30.10.2019
 11 11  0  0  0  0  0  0  0  0999 V2000
  -31.9813    5.2937  -44.0469 C   0  0  0  0  0  0  0  0  0  0  0  0
  -32.4786    5.4353  -45.1383 O   0  0  0  0  0  0  0  0  0  0  0  0
  -32.8589    5.0723  -42.8419 C   0  0  0  0  0  0  0  0  0  0  0  0
  -34.3268    5.0703  -43.2735 C   0  0  0  0  0  0  0  0  0  0  0  0
  -35.2263    4.9500  -42.0374 C   0  0  0  0  0  0  0  0  0  0  0  0
  -36.6806    5.1343  -42.4780 C   0  0  0  0  0  0  0  0  0  0  0  0
  -36.9693    4.2613  -43.6653 C   0  0  0  0  0  0  0  0  0  0  0  0
  -38.1280    4.0338  -43.9422 O   0  0  0  0  0  0  0  0  0  0  0  0
  -36.0199    3.7231  -44.4316 N   0  0  0  0  0  0  0  0  0  0  0  0
  -34.5907    3.8746  -44.1893 C   0  0  0  0  0  0  0  0  0  0  0  0
  -30.2220    5.3535  -43.8615 X   0  0  0  0  0  0  0  0  0  0  0  0
  1  2  2  0  0  0  0
  1  3  1  0  0  0  0
  1 11  1  0  0  0  0
  3  4  1  0  0  0  0
  4  5  1  0  0  0  0
  4 10  1  0  0  0  0
  5  6  1  0  0  0  0
  6  7  1  0  0  0  0
  7  8  2  0  0  0  0
  7  9  1  0  0  0  0
  9 10  1  0  0  0  0
M  END
> <Index>
13700

> <PropertyFieldDistance>
nan

$$$$
16521188
BBcorina  12272117083D 1   1.00000     0.00000 
CORINA 4.3.0 0026  30.10.2019
 11 12  0  0  0  0  0  0  0  0999 V2000
  -37.3970    5.6301  -44.6595 C   0  0  0  0  0  0  0  0  0  0  0  0
  -37.1994    6.7458  -44.2416 O   0  0  0  0  0  0  0  0  0  0  0  0
  -37.0426    4.4347  -43.8131 C   0  0  0  0  0  0  0  0  0  0  0  0
  -36.4468    4.8930  -42.4645 C   0  0  0  0  0  0  0  0  0  0  0  0
  -34.9320    4.8854  -42.7702 C   0  0  0  0  0  0  0  0  0  0  0  0
  -34.7841    3.8841  -43.8984 C   0  0  0  0  0  0  0  0  0  0  0  0
  -33.8823    3.1647  -44.5170 N   0  0  0  0  0  0  0  0  0  0  0  0
  -34.4733    2.4493  -45.4838 C   0  0  0  0  0  0  0  0  0  0  0  0
  -35.7883    2.7342  -45.4682 C   0  0  0  0  0  0  0  0  0  0  0  0
  -35.9842    3.6513  -44.4669 N   0  0  0  0  0  0  0  0  0  0  0  0
  -38.1026    5.3989  -46.2662 X   0  0  0  0  0  0  0  0  0  0  0  0
  1  2  2  0  0  0  0
  1  3  1  0  0  0  0
  1 11  1  0  0  0  0
  3  4  1  0  0  0  0
  3 10  1  0  0  0  0
  4  5  1  0  0  0  0
  5  6  1  0  0  0  0
  6  7  2  0  0  0  0
  6 10  1  0  0  0  0
  7  8  1  0  0  0  0
  8  9  2  0  0  0  0
  9 10  1  0  0  0  0
M  END
> <Index>
13705

> <PropertyFieldDistance>
nan

$$$$
15066158
BBcorina  12272117083D 1   1.00000     0.00000 
CORINA 4.3.0 0026  30.10.2019
 10 11  0  0  0  0  0  0  0  0999 V2000
  -35.8063    1.7888  -46.0181 C   0  0  0  0  0  0  0  0  0  0  0  0
  -35.0790    2.5737  -46.5779 O   0  0  0  0  0  0  0  0  0  0  0  0
  -36.5384    2.2003  -44.7667 C   0  0  0  0  0  0  0  0  0  0  0  0
  -36.2014    3.5918  -44.4375 N   0  0  0  0  0  0  0  0  0  0  0  0
  -37.0790    4.1107  -43.3570 C   0  0  0  0  0  0  0  0  0  0  0  0
  -36.3000    5.3036  -42.7625 C   0  0  0  0  0  0  0  0  0  0  0  0
  -35.3261    5.0292  -41.6149 C   0  0  0  0  0  0  0  0  0  0  0  0
  -34.8210    5.0257  -43.1015 C   0  0  0  0  0  0  0  0  0  0  0  0
  -34.8308    3.6881  -43.8725 C   0  0  0  0  0  0  0  0  0  0  0  0
  -36.0127    0.1551  -46.6674 X   0  0  0  0  0  0  0  0  0  0  0  0
  1  2  2  0  0  0  0
  1  3  1  0  0  0  0
  1 10  1  0  0  0  0
  3  4  1  0  0  0  0
  4  5  1  0  0  0  0
  4  9  1  0  0  0  0
  5  6  1  0  0  0  0
  6  7  1  0  0  0  0
  6  8  1  0  0  0  0
  7  8  1  0  0  0  0
  8  9  1  0  0  0  0
M  END
> <Index>
13793

> <PropertyFieldDistance>
nan

$$$$
14773888
BBcorina  12272117083D 1   1.00000     0.00000 
CORINA 4.3.0 0026  30.10.2019
 13 13  0  0  0  0  0  0  0  0999 V2000
  -35.0924    2.5173  -46.7078 O   0  0  0  0  0  0  0  0  0  0  0  0
  -36.3168    2.0842  -46.1118 C   0  0  0  0  0  0  0  0  0  0  0  0
  -36.1504    2.0222  -44.5921 C   0  0  0  0  0  0  0  0  0  0  0  0
  -35.9217    3.3720  -44.0705 N   0  0  0  0  0  0  0  0  0  0  0  0
  -37.0845    4.1601  -43.6818 C   0  0  0  0  0  0  0  0  0  0  0  0
  -36.6667    5.3005  -42.7525 C   0  0  0  0  0  0  0  0  0  0  0  0
  -35.5062    6.0620  -43.3934 C   0  0  0  0  0  0  0  0  0  0  0  0
  -34.2827    5.1425  -43.4197 C   0  0  0  0  0  0  0  0  0  0  0  0
  -34.6627    3.8023  -43.9807 C   0  0  0  0  0  0  0  0  0  0  0  0
  -33.7772    3.0721  -44.3726 O   0  0  0  0  0  0  0  0  0  0  0  0
  -35.1971    7.2946  -42.5833 C   0  0  0  0  0  0  0  0  0  0  0  0
  -34.1089    7.4272  -42.0769 O   0  0  0  0  0  0  0  0  0  0  0  0
  -36.4292    8.5481  -42.3743 X   0  0  0  0  0  0  0  0  0  0  0  0
  1  2  1  0  0  0  0
  2  3  1  0  0  0  0
  3  4  1  0  0  0  0
  4  5  1  0  0  0  0
  4  9  1  0  0  0  0
  5  6  1  0  0  0  0
  6  7  1  0  0  0  0
  7  8  1  0  0  0  0
  7 11  1  0  0  0  0
  8  9  1  0  0  0  0
  9 10  2  0  0  0  0
 11 12  2  0  0  0  0
 11 13  1  0  0  0  0
M  END
> <Index>
13796

> <PropertyFieldDistance>
nan

$$$$
16657948
BBcorina  12272117083D 1   1.00000     0.00000 
CORINA 4.3.0 0026  30.10.2019
 11 12  0  0  0  0  0  0  0  0999 V2000
  -33.2369    1.9614  -43.5457 C   0  0  0  0  0  0  0  0  0  0  0  0
  -33.2205    0.7539  -43.5524 O   0  0  0  0  0  0  0  0  0  0  0  0
  -34.5521    2.6971  -43.5355 C   0  0  0  0  0  0  0  0  0  0  0  0
  -34.6517    3.5839  -44.7812 C   0  0  0  0  0  0  0  0  0  0  0  0
  -36.0644    4.1835  -44.8498 C   0  0  0  0  0  0  0  0  0  0  0  0
  -36.3967    4.7839  -43.4641 C   0  0  0  0  0  0  0  0  0  0  0  0
  -37.0469    3.6111  -42.6964 C   0  0  0  0  0  0  0  0  0  0  0  0
  -37.0279    2.4452  -43.7120 C   0  0  0  0  0  0  0  0  0  0  0  0
  -35.7036    1.6861  -43.5390 C   0  0  0  0  0  0  0  0  0  0  0  0
  -36.9959    3.0898  -45.0049 O   0  0  0  0  0  0  0  0  0  0  0  0
  -31.7162    2.8672  -43.5554 X   0  0  0  0  0  0  0  0  0  0  0  0
  1  2  2  0  0  0  0
  1  3  1  0  0  0  0
  1 11  1  0  0  0  0
  3  4  1  0  0  0  0
  3  9  1  0  0  0  0
  4  5  1  0  0  0  0
  5  6  1  0  0  0  0
  5 10  1  0  0  0  0
  6  7  1  0  0  0  0
  7  8  1  0  0  0  0
  8  9  1  0  0  0  0
  8 10  1  0  0  0  0
M  END
> <Index>
13873

> <PropertyFieldDistance>
nan

$$$$
17069652
BBcorina  12272117083D 1   1.00000     0.00000 
CORINA 4.3.0 0026  30.10.2019
  9  9  0  0  0  0  0  0  0  0999 V2000
  -36.3235    2.2515  -44.8151 C   0  0  0  0  0  0  0  0  0  0  0  0
  -36.0634    3.6522  -44.4568 N   0  0  0  0  0  0  0  0  0  0  0  0
  -37.1160    4.1737  -43.5593 C   0  0  0  0  0  0  0  0  0  0  0  0
  -36.3824    5.1681  -42.6251 C   0  0  0  0  0  0  0  0  0  0  0  0
  -35.0219    4.4534  -42.4130 C   0  0  0  0  0  0  0  0  0  0  0  0
  -34.7597    3.7916  -43.7822 C   0  0  0  0  0  0  0  0  0  0  0  0
  -33.9407    5.4513  -42.0877 C   0  0  0  0  0  0  0  0  0  0  0  0
  -34.2200    6.6165  -41.9368 O   0  0  0  0  0  0  0  0  0  0  0  0
  -32.2612    4.9159  -41.9269 X   0  0  0  0  0  0  0  0  0  0  0  0
  1  2  1  0  0  0  0
  2  3  1  0  0  0  0
  2  6  1  0  0  0  0
  3  4  1  0  0  0  0
  4  5  1  0  0  0  0
  5  6  1  0  0  0  0
  5  7  1  0  0  0  0
  7  8  2  0  0  0  0
  7  9  1  0  0  0  0
M  END
> <Index>
13886

> <PropertyFieldDistance>
nan

$$$$
15149746
BBcorina  12272117083D 1   1.00000     0.00000 
CORINA 4.3.0 0026  30.10.2019
 12 12  0  0  0  0  0  0  0  0999 V2000
  -36.8260    3.3801  -40.8882 F   0  0  0  0  0  0  0  0  0  0  0  0
  -35.9394    2.7289  -41.7525 C   0  0  0  0  0  0  0  0  0  0  0  0
  -35.2465    1.7511  -41.0307 F   0  0  0  0  0  0  0  0  0  0  0  0
  -36.7485    2.0421  -42.8694 C   0  0  0  0  0  0  0  0  0  0  0  0
  -37.1836    3.0051  -43.9406 C   0  0  0  0  0  0  0  0  0  0  0  0
  -36.1392    2.9802  -45.0754 C   0  0  0  0  0  0  0  0  0  0  0  0
  -34.9652    3.7829  -44.7666 C   0  0  0  0  0  0  0  0  0  0  0  0
  -34.2114    3.2681  -43.5233 C   0  0  0  0  0  0  0  0  0  0  0  0
  -34.9234    3.7572  -42.2912 C   0  0  0  0  0  0  0  0  0  0  0  0
  -34.0320    3.7545  -45.9496 C   0  0  0  0  0  0  0  0  0  0  0  0
  -32.8962    3.3674  -45.8135 O   0  0  0  0  0  0  0  0  0  0  0  0
  -34.6006    4.2884  -47.5384 X   0  0  0  0  0  0  0  0  0  0  0  0
  1  2  1  0  0  0  0
  2  3  1  0  0  0  0
  2  4  1  0  0  0  0
  2  9  1  0  0  0  0
  4  5  1  0  0  0  0
  5  6  1  0  0  0  0
  6  7  1  0  0  0  0
  7  8  1  0  0  0  0
  7 10  1  0  0  0  0
  8  9  1  0  0  0  0
 10 11  2  0  0  0  0
 10 12  1  0  0  0  0
M  END
> <Index>
13927

> <PropertyFieldDistance>
nan

$$$$
14775800
BBcorina  12272117083D 1   1.00000     0.00000 
CORINA 4.3.0 0026  30.10.2019
 13 14  0  0  0  0  0  0  0  0999 V2000
  -33.9888    7.8576  -42.2219 C   0  0  0  0  0  0  0  0  0  0  0  0
  -33.5491    7.7864  -43.3443 O   0  0  0  0  0  0  0  0  0  0  0  0
  -35.0671    6.9054  -41.7733 C   0  0  0  0  0  0  0  0  0  0  0  0
  -35.4216    5.9586  -42.9217 C   0  0  0  0  0  0  0  0  0  0  0  0
  -36.6014    5.0741  -42.5093 C   0  0  0  0  0  0  0  0  0  0  0  0
  -37.1174    4.3010  -43.7282 C   0  0  0  0  0  0  0  0  0  0  0  0
  -35.9855    3.6413  -44.3807 N   0  0  0  0  0  0  0  0  0  0  0  0
  -36.0040    2.6295  -45.2653 C   0  0  0  0  0  0  0  0  0  0  0  0
  -34.7714    2.3415  -45.5940 N   0  0  0  0  0  0  0  0  0  0  0  0
  -33.9324    3.1579  -44.9332 C   0  0  0  0  0  0  0  0  0  0  0  0
  -34.6713    3.9754  -44.1730 C   0  0  0  0  0  0  0  0  0  0  0  0
  -34.2117    5.0718  -43.2466 C   0  0  0  0  0  0  0  0  0  0  0  0
  -33.3667    9.0805  -41.1036 X   0  0  0  0  0  0  0  0  0  0  0  0
  1  2  2  0  0  0  0
  1  3  1  0  0  0  0
  1 13  1  0  0  0  0
  3  4  1  0  0  0  0
  4  5  1  0  0  0  0
  4 12  1  0  0  0  0
  5  6  1  0  0  0  0
  6  7  1  0  0  0  0
  7  8  1  0  0  0  0
  7 11  1  0  0  0  0
  8  9  2  0  0  0  0
  9 10  1  0  0  0  0
 10 11  2  0  0  0  0
 11 12  1  0  0  0  0
M  END
> <Index>
13932

> <PropertyFieldDistance>
nan

$$$$
15066024
BBcorina  12272117083D 1   1.00000     0.00000 
CORINA 4.3.0 0026  30.10.2019
 11 11  0  0  0  0  0  0  0  0999 V2000
  -36.3355    2.5154  -45.1554 C   0  0  0  0  0  0  0  0  0  0  0  0
  -36.0499    3.1578  -43.8656 N   0  0  0  0  0  0  0  0  0  0  0  0
  -37.0937    4.1526  -43.5267 C   0  0  0  0  0  0  0  0  0  0  0  0
  -36.3938    5.2981  -42.7722 C   0  0  0  0  0  0  0  0  0  0  0  0
  -36.9467    5.4131  -41.3501 C   0  0  0  0  0  0  0  0  0  0  0  0
  -36.5795    6.6191  -43.5215 C   0  0  0  0  0  0  0  0  0  0  0  0
  -34.8986    4.9070  -42.7365 C   0  0  0  0  0  0  0  0  0  0  0  0
  -34.7722    3.9133  -43.9186 C   0  0  0  0  0  0  0  0  0  0  0  0
  -33.5967    2.9923  -43.7158 C   0  0  0  0  0  0  0  0  0  0  0  0
  -33.7689    1.7988  -43.6515 O   0  0  0  0  0  0  0  0  0  0  0  0
  -31.9639    3.6600  -43.5719 X   0  0  0  0  0  0  0  0  0  0  0  0
  1  2  1  0  0  0  0
  2  3  1  0  0  0  0
  2  8  1  0  0  0  0
  3  4  1  0  0  0  0
  4  5  1  0  0  0  0
  4  6  1  0  0  0  0
  4  7  1  0  0  0  0
  7  8  1  0  0  0  0
  8  9  1  0  0  0  0
  9 10  2  0  0  0  0
  9 11  1  0  0  0  0
M  END
> <Index>
13961

> <PropertyFieldDistance>
nan

$$$$
6283184
BBcorina  12272117083D 1   1.00000     0.00000 
CORINA 4.3.0 0026  30.10.2019
 10 10  0  0  0  0  0  0  0  0999 V2000
  -36.0816    4.1964  -41.6618 C   0  0  0  0  0  0  0  0  0  0  0  0
  -36.3939    3.4140  -40.7965 O   0  0  0  0  0  0  0  0  0  0  0  0
  -35.4456    3.6985  -42.9341 C   0  0  0  0  0  0  0  0  0  0  0  0
  -35.2993    2.1770  -42.8657 C   0  0  0  0  0  0  0  0  0  0  0  0
  -34.5744    1.6790  -44.1205 C   0  0  0  0  0  0  0  0  0  0  0  0
  -35.3135    2.1838  -45.3400 C   0  0  0  0  0  0  0  0  0  0  0  0
  -35.6413    1.4276  -46.2225 O   0  0  0  0  0  0  0  0  0  0  0  0
  -35.6311    3.6603  -45.4259 C   0  0  0  0  0  0  0  0  0  0  0  0
  -36.3219    4.0864  -44.1262 C   0  0  0  0  0  0  0  0  0  0  0  0
  -36.3710    5.9279  -41.4357 X   0  0  0  0  0  0  0  0  0  0  0  0
  1  2  2  0  0  0  0
  1  3  1  0  0  0  0
  1 10  1  0  0  0  0
  3  4  1  0  0  0  0
  3  9  1  0  0  0  0
  4  5  1  0  0  0  0
  5  6  1  0  0  0  0
  6  7  2  0  0  0  0
  6  8  1  0  0  0  0
  8  9  1  0  0  0  0
M  END
> <Index>
13973

> <PropertyFieldDistance>
nan

$$$$
3935576
BBcorina  12272117083D 1   1.00000     0.00000 
CORINA 4.3.0 0026  30.10.2019
 10 10  0  0  0  0  0  0  0  0999 V2000
  -37.9211    4.3091  -44.9145 C   0  0  0  0  0  0  0  0  0  0  0  0
  -37.2639    3.8844  -45.8342 O   0  0  0  0  0  0  0  0  0  0  0  0
  -37.4112    4.1821  -43.5021 C   0  0  0  0  0  0  0  0  0  0  0  0
  -36.0707    3.4936  -43.5120 C   0  0  0  0  0  0  0  0  0  0  0  0
  -35.0085    4.2334  -43.5182 C   0  0  0  0  0  0  0  0  0  0  0  0
  -33.6083    3.6940  -43.5446 C   0  0  0  0  0  0  0  0  0  0  0  0
  -33.6042    2.2185  -43.1393 C   0  0  0  0  0  0  0  0  0  0  0  0
  -34.6745    1.4871  -43.9593 C   0  0  0  0  0  0  0  0  0  0  0  0
  -36.0503    1.9931  -43.5203 C   0  0  0  0  0  0  0  0  0  0  0  0
  -39.4835    5.0808  -45.2253 X   0  0  0  0  0  0  0  0  0  0  0  0
  1  2  2  0  0  0  0
  1  3  1  0  0  0  0
  1 10  1  0  0  0  0
  3  4  1  0  0  0  0
  4  5  2  0  0  0  0
  4  9  1  0  0  0  0
  5  6  1  0  0  0  0
  6  7  1  0  0  0  0
  7  8  1  0  0  0  0
  8  9  1  0  0  0  0
M  END
> <Index>
13978

> <PropertyFieldDistance>
nan

$$$$
16466106
BBcorina  12272117083D 1   1.00000     0.00000 
CORINA 4.3.0 0026  30.10.2019
 13 13  0  0  0  0  0  0  0  0999 V2000
  -33.4469    7.0716  -41.6433 C   0  0  0  0  0  0  0  0  0  0  0  0
  -34.8285    6.9538  -42.1282 N   0  0  0  0  0  0  0  0  0  0  0  0
  -35.0487    7.8079  -43.3029 C   0  0  0  0  0  0  0  0  0  0  0  0
  -35.1650    5.5549  -42.4241 C   0  0  0  0  0  0  0  0  0  0  0  0
  -36.6444    5.4542  -42.8061 C   0  0  0  0  0  0  0  0  0  0  0  0
  -36.9747    4.0050  -43.1705 C   0  0  0  0  0  0  0  0  0  0  0  0
  -36.1304    3.5765  -44.2930 N   0  0  0  0  0  0  0  0  0  0  0  0
  -36.5153    2.2379  -44.7601 C   0  0  0  0  0  0  0  0  0  0  0  0
  -35.8041    1.9335  -46.0534 C   0  0  0  0  0  0  0  0  0  0  0  0
  -35.0540    2.7475  -46.5361 O   0  0  0  0  0  0  0  0  0  0  0  0
  -34.7073    3.6195  -43.9337 C   0  0  0  0  0  0  0  0  0  0  0  0
  -34.3093    5.0572  -43.5922 C   0  0  0  0  0  0  0  0  0  0  0  0
  -36.0681    0.3827  -46.8647 X   0  0  0  0  0  0  0  0  0  0  0  0
  1  2  1  0  0  0  0
  2  3  1  0  0  0  0
  2  4  1  0  0  0  0
  4  5  1  0  0  0  0
  4 12  1  0  0  0  0
  5  6  1  0  0  0  0
  6  7  1  0  0  0  0
  7  8  1  0  0  0  0
  7 11  1  0  0  0  0
  8  9  1  0  0  0  0
  9 10  2  0  0  0  0
  9 13  1  0  0  0  0
 11 12  1  0  0  0  0
M  END
> <Index>
14069

> <PropertyFieldDistance>
nan

$$$$
9438616
BBcorina  12272117083D 1   1.00000     0.00000 
CORINA 4.3.0 0026  30.10.2019
 12 13  0  0  0  0  0  0  0  0999 V2000
  -34.9595    6.9211  -41.8383 C   0  0  0  0  0  0  0  0  0  0  0  0
  -34.1047    7.5682  -42.3944 O   0  0  0  0  0  0  0  0  0  0  0  0
  -35.2385    5.5066  -42.2766 C   0  0  0  0  0  0  0  0  0  0  0  0
  -36.6923    5.3914  -42.7434 C   0  0  0  0  0  0  0  0  0  0  0  0
  -36.9514    3.9682  -43.2427 C   0  0  0  0  0  0  0  0  0  0  0  0
  -36.0372    3.6631  -44.3507 N   0  0  0  0  0  0  0  0  0  0  0  0
  -34.6363    3.7210  -43.9146 C   0  0  0  0  0  0  0  0  0  0  0  0
  -34.3080    5.1368  -43.4351 C   0  0  0  0  0  0  0  0  0  0  0  0
  -36.3495    2.3571  -44.9464 C   0  0  0  0  0  0  0  0  0  0  0  0
  -35.4840    1.8901  -46.1186 C   0  0  0  0  0  0  0  0  0  0  0  0
  -35.3355    1.2289  -44.7467 C   0  0  0  0  0  0  0  0  0  0  0  0
  -35.8845    7.6344  -40.5085 X   0  0  0  0  0  0  0  0  0  0  0  0
  1  2  2  0  0  0  0
  1  3  1  0  0  0  0
  1 12  1  0  0  0  0
  3  4  1  0  0  0  0
  3  8  1  0  0  0  0
  4  5  1  0  0  0  0
  5  6  1  0  0  0  0
  6  7  1  0  0  0  0
  6  9  1  0  0  0  0
  7  8  1  0  0  0  0
  9 10  1  0  0  0  0
  9 11  1  0  0  0  0
 10 11  1  0  0  0  0
M  END
> <Index>
14092

> <PropertyFieldDistance>
nan

$$$$
7104998
BBcorina  12272117083D 1   1.00000     0.00000 
CORINA 4.3.0 0026  30.10.2019
 13 14  0  0  0  0  0  0  0  0999 V2000
  -34.8159    6.9934  -42.1262 C   0  0  0  0  0  0  0  0  0  0  0  0
  -35.6638    7.8493  -42.2083 O   0  0  0  0  0  0  0  0  0  0  0  0
  -35.1631    5.5577  -42.4253 C   0  0  0  0  0  0  0  0  0  0  0  0
  -36.6430    5.4576  -42.8054 C   0  0  0  0  0  0  0  0  0  0  0  0
  -36.9749    4.0081  -43.1668 C   0  0  0  0  0  0  0  0  0  0  0  0
  -36.1323    3.5770  -44.2896 N   0  0  0  0  0  0  0  0  0  0  0  0
  -36.5188    2.2380  -44.7540 C   0  0  0  0  0  0  0  0  0  0  0  0
  -35.7986    1.9260  -46.0674 C   0  0  0  0  0  0  0  0  0  0  0  0
  -36.1569    0.6183  -46.7762 C   0  0  0  0  0  0  0  0  0  0  0  0
  -34.8069    0.7609  -46.0704 C   0  0  0  0  0  0  0  0  0  0  0  0
  -34.7087    3.6195  -43.9322 C   0  0  0  0  0  0  0  0  0  0  0  0
  -34.3091    5.0575  -43.5937 C   0  0  0  0  0  0  0  0  0  0  0  0
  -33.1653    7.4250  -41.6547 X   0  0  0  0  0  0  0  0  0  0  0  0
  1  2  2  0  0  0  0
  1  3  1  0  0  0  0
  1 13  1  0  0  0  0
  3  4  1  0  0  0  0
  3 12  1  0  0  0  0
  4  5  1  0  0  0  0
  5  6  1  0  0  0  0
  6  7  1  0  0  0  0
  6 11  1  0  0  0  0
  7  8  1  0  0  0  0
  8  9  1  0  0  0  0
  8 10  1  0  0  0  0
  9 10  1  0  0  0  0
 11 12  1  0  0  0  0
M  END
> <Index>
14093

> <PropertyFieldDistance>
nan

$$$$
16466102
BBcorina  12272117083D 1   1.00000     0.00000 
CORINA 4.3.0 0026  30.10.2019
 14 14  0  0  0  0  0  0  0  0999 V2000
  -33.4427    7.0746  -41.6492 C   0  0  0  0  0  0  0  0  0  0  0  0
  -34.8250    6.9570  -42.1323 N   0  0  0  0  0  0  0  0  0  0  0  0
  -35.0461    7.8093  -43.3082 C   0  0  0  0  0  0  0  0  0  0  0  0
  -35.1631    5.5577  -42.4253 C   0  0  0  0  0  0  0  0  0  0  0  0
  -36.6430    5.4577  -42.8054 C   0  0  0  0  0  0  0  0  0  0  0  0
  -36.9749    4.0081  -43.1668 C   0  0  0  0  0  0  0  0  0  0  0  0
  -36.1324    3.5770  -44.2897 N   0  0  0  0  0  0  0  0  0  0  0  0
  -36.5188    2.2379  -44.7539 C   0  0  0  0  0  0  0  0  0  0  0  0
  -35.7986    1.9261  -46.0674 C   0  0  0  0  0  0  0  0  0  0  0  0
  -36.1950    0.5524  -46.5437 C   0  0  0  0  0  0  0  0  0  0  0  0
  -36.9771   -0.1069  -45.9017 O   0  0  0  0  0  0  0  0  0  0  0  0
  -34.7087    3.6195  -43.9322 C   0  0  0  0  0  0  0  0  0  0  0  0
  -34.3091    5.0575  -43.5936 C   0  0  0  0  0  0  0  0  0  0  0  0
  -35.5200   -0.0917  -48.0478 X   0  0  0  0  0  0  0  0  0  0  0  0
  1  2  1  0  0  0  0
  2  3  1  0  0  0  0
  2  4  1  0  0  0  0
  4  5  1  0  0  0  0
  4 13  1  0  0  0  0
  5  6  1  0  0  0  0
  6  7  1  0  0  0  0
  7  8  1  0  0  0  0
  7 12  1  0  0  0  0
  8  9  1  0  0  0  0
  9 10  1  0  0  0  0
 10 11  2  0  0  0  0
 10 14  1  0  0  0  0
 12 13  1  0  0  0  0
M  END
> <Index>
14130

> <PropertyFieldDistance>
nan

$$$$
15766820
BBcorina  12272117083D 1   1.00000     0.00000 
CORINA 4.3.0 0026  30.10.2019
 11 12  0  0  0  0  0  0  0  0999 V2000
  -35.4157    1.8468  -45.6443 C   0  0  0  0  0  0  0  0  0  0  0  0
  -34.9857    2.6427  -46.4443 O   0  0  0  0  0  0  0  0  0  0  0  0
  -36.2697    2.3191  -44.4959 C   0  0  0  0  0  0  0  0  0  0  0  0
  -36.4309    3.7772  -44.5730 N   0  0  0  0  0  0  0  0  0  0  0  0
  -37.2073    4.2814  -43.4003 C   0  0  0  0  0  0  0  0  0  0  0  0
  -36.2756    5.3228  -42.7061 C   0  0  0  0  0  0  0  0  0  0  0  0
  -35.1502    4.4502  -42.0623 C   0  0  0  0  0  0  0  0  0  0  0  0
  -34.3812    3.8698  -43.2721 C   0  0  0  0  0  0  0  0  0  0  0  0
  -35.1051    4.4668  -44.5174 C   0  0  0  0  0  0  0  0  0  0  0  0
  -35.5196    5.8766  -43.9674 C   0  0  0  0  0  0  0  0  0  0  0  0
  -35.0427    0.1255  -45.8203 X   0  0  0  0  0  0  0  0  0  0  0  0
  1  2  2  0  0  0  0
  1  3  1  0  0  0  0
  1 11  1  0  0  0  0
  3  4  1  0  0  0  0
  4  5  1  0  0  0  0
  4  9  1  0  0  0  0
  5  6  1  0  0  0  0
  6  7  1  0  0  0  0
  6 10  1  0  0  0  0
  7  8  1  0  0  0  0
  8  9  1  0  0  0  0
  9 10  1  0  0  0  0
M  END
> <Index>
14142

> <PropertyFieldDistance>
nan

$$$$
17663422
BBcorina  12272117083D 1   1.00000     0.00000 
CORINA 4.3.0 0026  30.10.2019
 11 11  0  0  0  0  0  0  0  0999 V2000
  -38.1168    3.2616  -43.2972 C   0  0  0  0  0  0  0  0  0  0  0  0
  -37.0859    4.3072  -43.7269 C   0  0  0  0  0  0  0  0  0  0  0  0
  -36.6105    5.0832  -42.4979 C   0  0  0  0  0  0  0  0  0  0  0  0
  -35.4241    5.9661  -42.9033 C   0  0  0  0  0  0  0  0  0  0  0  0
  -34.2412    5.0583  -43.2491 C   0  0  0  0  0  0  0  0  0  0  0  0
  -33.7027    4.4351  -41.9870 C   0  0  0  0  0  0  0  0  0  0  0  0
  -34.2121    4.6909  -40.9224 O   0  0  0  0  0  0  0  0  0  0  0  0
  -34.6862    3.9752  -44.1895 C   0  0  0  0  0  0  0  0  0  0  0  0
  -33.8386    3.3738  -44.8144 O   0  0  0  0  0  0  0  0  0  0  0  0
  -35.9635    3.6397  -44.3742 N   0  0  0  0  0  0  0  0  0  0  0  0
  -32.3234    3.3286  -42.0652 X   0  0  0  0  0  0  0  0  0  0  0  0
  1  2  1  0  0  0  0
  2  3  1  0  0  0  0
  2 10  1  0  0  0  0
  3  4  1  0  0  0  0
  4  5  1  0  0  0  0
  5  6  1  0  0  0  0
  5  8  1  0  0  0  0
  6  7  2  0  0  0  0
  6 11  1  0  0  0  0
  8  9  2  0  0  0  0
  8 10  1  0  0  0  0
M  END
> <Index>
14163

> <PropertyFieldDistance>
nan

$$$$
9749296
BBcorina  12272117083D 1   1.00000     0.00000 
CORINA 4.3.0 0026  30.10.2019
 12 12  0  0  0  0  0  0  0  0999 V2000
  -36.9458    2.6734  -41.0353 C   0  0  0  0  0  0  0  0  0  0  0  0
  -38.1366    2.7441  -41.2231 O   0  0  0  0  0  0  0  0  0  0  0  0
  -35.9889    3.2777  -42.0305 C   0  0  0  0  0  0  0  0  0  0  0  0
  -36.7787    3.9137  -43.1761 C   0  0  0  0  0  0  0  0  0  0  0  0
  -37.0545    5.3839  -42.8555 C   0  0  0  0  0  0  0  0  0  0  0  0
  -35.9118    5.9874  -42.0594 C   0  0  0  0  0  0  0  0  0  0  0  0
  -34.6144    6.1006  -42.8391 C   0  0  0  0  0  0  0  0  0  0  0  0
  -34.0522    4.7137  -43.1602 C   0  0  0  0  0  0  0  0  0  0  0  0
  -34.7101    4.2104  -44.4279 C   0  0  0  0  0  0  0  0  0  0  0  0
  -34.0693    4.1418  -45.4553 O   0  0  0  0  0  0  0  0  0  0  0  0
  -35.9918    3.8419  -44.4180 N   0  0  0  0  0  0  0  0  0  0  0  0
  -36.3242    1.8601  -39.5913 X   0  0  0  0  0  0  0  0  0  0  0  0
  1  2  2  0  0  0  0
  1  3  1  0  0  0  0
  1 12  1  0  0  0  0
  3  4  1  0  0  0  0
  4  5  1  0  0  0  0
  4 11  1  0  0  0  0
  5  6  1  0  0  0  0
  6  7  1  0  0  0  0
  7  8  1  0  0  0  0
  8  9  1  0  0  0  0
  9 10  2  0  0  0  0
  9 11  1  0  0  0  0
M  END
> <Index>
14169

> <PropertyFieldDistance>
nan

$$$$
11678524
BBcorina  12272117083D 1   1.00000     0.00000 
CORINA 4.3.0 0026  30.10.2019
 11 12  0  0  0  0  0  0  0  0999 V2000
  -36.1788    3.4581  -40.3817 C   0  0  0  0  0  0  0  0  0  0  0  0
  -35.3952    3.6585  -39.4850 O   0  0  0  0  0  0  0  0  0  0  0  0
  -35.8387    3.8794  -41.7881 C   0  0  0  0  0  0  0  0  0  0  0  0
  -36.8235    4.9270  -42.3667 C   0  0  0  0  0  0  0  0  0  0  0  0
  -36.9009    4.6040  -43.8710 C   0  0  0  0  0  0  0  0  0  0  0  0
  -35.9890    3.4600  -44.1096 N   0  0  0  0  0  0  0  0  0  0  0  0
  -35.9460    2.7215  -42.8171 C   0  0  0  0  0  0  0  0  0  0  0  0
  -34.4229    4.4727  -41.9135 C   0  0  0  0  0  0  0  0  0  0  0  0
  -34.2662    5.0634  -43.3178 C   0  0  0  0  0  0  0  0  0  0  0  0
  -34.6078    4.0091  -44.3726 C   0  0  0  0  0  0  0  0  0  0  0  0
  -37.7270    2.6694  -40.0440 X   0  0  0  0  0  0  0  0  0  0  0  0
  1  2  2  0  0  0  0
  1  3  1  0  0  0  0
  1 11  1  0  0  0  0
  3  4  1  0  0  0  0
  3  7  1  0  0  0  0
  3  8  1  0  0  0  0
  4  5  1  0  0  0  0
  5  6  1  0  0  0  0
  6  7  1  0  0  0  0
  6 10  1  0  0  0  0
  8  9  1  0  0  0  0
  9 10  1  0  0  0  0
M  END
> <Index>
14192

> <PropertyFieldDistance>
nan

$$$$
16526326
BBcorina  12272117083D 1   1.00000     0.00000 
CORINA 4.3.0 0026  30.10.2019
 16 17  0  0  0  0  0  0  0  0999 V2000
  -35.0744    7.1373  -42.2820 C   0  0  0  0  0  0  0  0  0  0  0  0
  -35.9919    7.9084  -42.4308 O   0  0  0  0  0  0  0  0  0  0  0  0
  -35.2874    5.6616  -42.5012 C   0  0  0  0  0  0  0  0  0  0  0  0
  -36.7428    5.4104  -42.9019 C   0  0  0  0  0  0  0  0  0  0  0  0
  -36.9642    3.9063  -43.0903 C   0  0  0  0  0  0  0  0  0  0  0  0
  -35.9771    3.4000  -44.0536 N   0  0  0  0  0  0  0  0  0  0  0  0
  -34.5522    3.6606  -43.8079 C   0  0  0  0  0  0  0  0  0  0  0  0
  -34.3582    5.1722  -43.6145 C   0  0  0  0  0  0  0  0  0  0  0  0
  -36.3802    2.6882  -45.1649 C   0  0  0  0  0  0  0  0  0  0  0  0
  -35.5666    1.6995  -45.6927 C   0  0  0  0  0  0  0  0  0  0  0  0
  -36.0131    1.0004  -46.8226 C   0  0  0  0  0  0  0  0  0  0  0  0
  -35.3285    0.1208  -47.3205 O   0  0  0  0  0  0  0  0  0  0  0  0
  -37.2143    1.3178  -47.3491 N   0  0  0  0  0  0  0  0  0  0  0  0
  -37.9647    2.2902  -46.7939 C   0  0  0  0  0  0  0  0  0  0  0  0
  -37.5634    2.9500  -45.7425 N   0  0  0  0  0  0  0  0  0  0  0  0
  -33.4798    7.7403  -41.8063 X   0  0  0  0  0  0  0  0  0  0  0  0
  1  2  2  0  0  0  0
  1  3  1  0  0  0  0
  1 16  1  0  0  0  0
  3  4  1  0  0  0  0
  3  8  1  0  0  0  0
  4  5  1  0  0  0  0
  5  6  1  0  0  0  0
  6  7  1  0  0  0  0
  6  9  1  0  0  0  0
  7  8  1  0  0  0  0
  9 10  2  0  0  0  0
  9 15  1  0  0  0  0
 10 11  1  0  0  0  0
 11 12  2  0  0  0  0
 11 13  1  0  0  0  0
 13 14  1  0  0  0  0
 14 15  2  0  0  0  0
M  END
> <Index>
14278

> <PropertyFieldDistance>
nan

$$$$
16712384
BBcorina  12272117083D 1   1.00000     0.00000 
CORINA 4.3.0 0026  30.10.2019
 13 14  0  0  0  0  0  0  0  0999 V2000
  -36.4450    2.2269  -44.7329 C   0  0  0  0  0  0  0  0  0  0  0  0
  -35.9440    3.4987  -44.2056 N   0  0  0  0  0  0  0  0  0  0  0  0
  -36.6981    4.5567  -43.7995 C   0  0  0  0  0  0  0  0  0  0  0  0
  -35.9278    5.5243  -43.3870 N   0  0  0  0  0  0  0  0  0  0  0  0
  -34.6400    5.1563  -43.4992 C   0  0  0  0  0  0  0  0  0  0  0  0
  -33.4049    5.7684  -43.2177 C   0  0  0  0  0  0  0  0  0  0  0  0
  -32.2884    5.0818  -43.4634 N   0  0  0  0  0  0  0  0  0  0  0  0
  -32.3318    3.8628  -43.9573 C   0  0  0  0  0  0  0  0  0  0  0  0
  -33.4653    3.2482  -44.2371 N   0  0  0  0  0  0  0  0  0  0  0  0
  -34.6264    3.8443  -44.0287 C   0  0  0  0  0  0  0  0  0  0  0  0
  -33.3465    7.1339  -42.6649 C   0  0  0  0  0  0  0  0  0  0  0  0
  -34.3711    7.7441  -42.4474 O   0  0  0  0  0  0  0  0  0  0  0  0
  -31.7803    7.8824  -42.3190 X   0  0  0  0  0  0  0  0  0  0  0  0
  1  2  1  0  0  0  0
  2  3  1  0  0  0  0
  2 10  1  0  0  0  0
  3  4  2  0  0  0  0
  4  5  1  0  0  0  0
  5  6  2  0  0  0  0
  5 10  1  0  0  0  0
  6  7  1  0  0  0  0
  6 11  1  0  0  0  0
  7  8  2  0  0  0  0
  8  9  1  0  0  0  0
  9 10  2  0  0  0  0
 11 12  2  0  0  0  0
 11 13  1  0  0  0  0
M  END
> <Index>
14337

> <PropertyFieldDistance>
nan

$$$$
9276778
BBcorina  12272117083D 1   1.00000     0.00000 
CORINA 4.3.0 0026  30.10.2019
  9  9  0  0  0  0  0  0  0  0999 V2000
  -36.4243    2.1602  -44.7037 C   0  0  0  0  0  0  0  0  0  0  0  0
  -36.0243    3.4876  -44.2302 N   0  0  0  0  0  0  0  0  0  0  0  0
  -36.8460    4.4883  -43.8705 C   0  0  0  0  0  0  0  0  0  0  0  0
  -36.1365    5.5268  -43.5071 N   0  0  0  0  0  0  0  0  0  0  0  0
  -34.8391    5.2456  -43.6095 C   0  0  0  0  0  0  0  0  0  0  0  0
  -34.7292    3.9463  -44.0667 C   0  0  0  0  0  0  0  0  0  0  0  0
  -33.5348    3.2321  -44.3219 C   0  0  0  0  0  0  0  0  0  0  0  0
  -32.4587    3.7652  -44.1430 O   0  0  0  0  0  0  0  0  0  0  0  0
  -33.6094    1.5640  -44.9090 X   0  0  0  0  0  0  0  0  0  0  0  0
  1  2  1  0  0  0  0
  2  3  1  0  0  0  0
  2  6  1  0  0  0  0
  3  4  2  0  0  0  0
  4  5  1  0  0  0  0
  5  6  2  0  0  0  0
  6  7  1  0  0  0  0
  7  8  2  0  0  0  0
  7  9  1  0  0  0  0
M  END
> <Index>
14372

> <PropertyFieldDistance>
nan

$$$$
5054602
BBcorina  12272117083D 1   1.00000     0.00000 
CORINA 4.3.0 0026  30.10.2019
 10 10  0  0  0  0  0  0  0  0999 V2000
  -36.8438    5.2406  -42.4883 C   0  0  0  0  0  0  0  0  0  0  0  0
  -36.4098    5.8510  -43.4357 O   0  0  0  0  0  0  0  0  0  0  0  0
  -36.7155    3.7400  -42.4359 C   0  0  0  0  0  0  0  0  0  0  0  0
  -36.0026    3.2447  -43.6958 C   0  0  0  0  0  0  0  0  0  0  0  0
  -35.9818    1.7131  -43.7042 C   0  0  0  0  0  0  0  0  0  0  0  0
  -35.1987    1.2279  -44.9269 C   0  0  0  0  0  0  0  0  0  0  0  0
  -33.8777    1.7717  -44.8913 O   0  0  0  0  0  0  0  0  0  0  0  0
  -33.8333    3.1996  -44.9293 C   0  0  0  0  0  0  0  0  0  0  0  0
  -34.5616    3.7640  -43.7067 C   0  0  0  0  0  0  0  0  0  0  0  0
  -37.6306    6.1085  -41.1615 X   0  0  0  0  0  0  0  0  0  0  0  0
  1  2  2  0  0  0  0
  1  3  1  0  0  0  0
  1 10  1  0  0  0  0
  3  4  1  0  0  0  0
  4  5  1  0  0  0  0
  4  9  1  0  0  0  0
  5  6  1  0  0  0  0
  6  7  1  0  0  0  0
  7  8  1  0  0  0  0
  8  9  1  0  0  0  0
M  END
> <Index>
14373

> <PropertyFieldDistance>
nan

$$$$
16658148
BBcorina  12272117083D 1   1.00000     0.00000 
CORINA 4.3.0 0026  30.10.2019
 14 15  0  0  0  0  0  0  0  0999 V2000
  -33.5048    1.7667  -42.9282 F   0  0  0  0  0  0  0  0  0  0  0  0
  -34.1679    2.1791  -44.0889 C   0  0  0  0  0  0  0  0  0  0  0  0
  -33.4937    1.6906  -45.2132 F   0  0  0  0  0  0  0  0  0  0  0  0
  -35.6040    1.6440  -44.0781 C   0  0  0  0  0  0  0  0  0  0  0  0
  -36.3362    2.1561  -45.3219 C   0  0  0  0  0  0  0  0  0  0  0  0
  -36.3102    3.5848  -45.3335 O   0  0  0  0  0  0  0  0  0  0  0  0
  -34.9968    4.1458  -45.3802 C   0  0  0  0  0  0  0  0  0  0  0  0
  -34.2137    3.7102  -44.1382 C   0  0  0  0  0  0  0  0  0  0  0  0
  -34.9096    4.2310  -42.8778 C   0  0  0  0  0  0  0  0  0  0  0  0
  -36.3385    3.6869  -42.8234 C   0  0  0  0  0  0  0  0  0  0  0  0
  -36.3144    2.1425  -42.8167 C   0  0  0  0  0  0  0  0  0  0  0  0
  -37.0210    4.1928  -41.5787 C   0  0  0  0  0  0  0  0  0  0  0  0
  -37.4351    3.4108  -40.7569 O   0  0  0  0  0  0  0  0  0  0  0  0
  -37.2156    5.9331  -41.3212 X   0  0  0  0  0  0  0  0  0  0  0  0
  1  2  1  0  0  0  0
  2  3  1  0  0  0  0
  2  4  1  0  0  0  0
  2  8  1  0  0  0  0
  4  5  1  0  0  0  0
  4 11  1  0  0  0  0
  5  6  1  0  0  0  0
  6  7  1  0  0  0  0
  7  8  1  0  0  0  0
  8  9  1  0  0  0  0
  9 10  1  0  0  0  0
 10 11  1  0  0  0  0
 10 12  1  0  0  0  0
 12 13  2  0  0  0  0
 12 14  1  0  0  0  0
M  END
> <Index>
14379

> <PropertyFieldDistance>
nan

$$$$
16762242
BBcorina  12272117083D 1   1.00000     0.00000 
CORINA 4.3.0 0026  30.10.2019
 12 13  0  0  0  0  0  0  0  0999 V2000
  -39.3116    4.7873  -42.8128 C   0  0  0  0  0  0  0  0  0  0  0  0
  -39.8611    5.8520  -42.6610 O   0  0  0  0  0  0  0  0  0  0  0  0
  -37.8537    4.6353  -42.4626 C   0  0  0  0  0  0  0  0  0  0  0  0
  -37.0544    4.3408  -43.7429 C   0  0  0  0  0  0  0  0  0  0  0  0
  -35.6443    4.3348  -43.3852 N   0  0  0  0  0  0  0  0  0  0  0  0
  -34.6711    4.0140  -44.4268 C   0  0  0  0  0  0  0  0  0  0  0  0
  -33.3637    4.7387  -44.0202 C   0  0  0  0  0  0  0  0  0  0  0  0
  -33.7345    5.5521  -42.7487 C   0  0  0  0  0  0  0  0  0  0  0  0
  -35.2603    5.6857  -42.8885 C   0  0  0  0  0  0  0  0  0  0  0  0
  -35.9849    5.8922  -41.5653 C   0  0  0  0  0  0  0  0  0  0  0  0
  -37.3941    5.8331  -41.8387 O   0  0  0  0  0  0  0  0  0  0  0  0
  -40.2183    3.4057  -43.4465 X   0  0  0  0  0  0  0  0  0  0  0  0
  1  2  2  0  0  0  0
  1  3  1  0  0  0  0
  1 12  1  0  0  0  0
  3  4  1  0  0  0  0
  3 11  1  0  0  0  0
  4  5  1  0  0  0  0
  5  6  1  0  0  0  0
  5  9  1  0  0  0  0
  6  7  1  0  0  0  0
  7  8  1  0  0  0  0
  8  9  1  0  0  0  0
  9 10  1  0  0  0  0
 10 11  1  0  0  0  0
M  END
> <Index>
14384

> <PropertyFieldDistance>
nan

$$$$
16717290
BBcorina  12272117083D 1   1.00000     0.00000 
CORINA 4.3.0 0026  30.10.2019
 16 17  0  0  0  0  0  0  0  0999 V2000
  -35.0744    7.1373  -42.2820 C   0  0  0  0  0  0  0  0  0  0  0  0
  -35.9919    7.9084  -42.4308 O   0  0  0  0  0  0  0  0  0  0  0  0
  -35.2874    5.6616  -42.5012 C   0  0  0  0  0  0  0  0  0  0  0  0
  -36.7428    5.4104  -42.9019 C   0  0  0  0  0  0  0  0  0  0  0  0
  -36.9642    3.9063  -43.0903 C   0  0  0  0  0  0  0  0  0  0  0  0
  -35.9771    3.4000  -44.0536 N   0  0  0  0  0  0  0  0  0  0  0  0
  -34.5522    3.6606  -43.8079 C   0  0  0  0  0  0  0  0  0  0  0  0
  -34.3582    5.1722  -43.6145 C   0  0  0  0  0  0  0  0  0  0  0  0
  -36.3802    2.6882  -45.1649 C   0  0  0  0  0  0  0  0  0  0  0  0
  -35.5666    1.6995  -45.6927 C   0  0  0  0  0  0  0  0  0  0  0  0
  -36.0131    1.0004  -46.8226 C   0  0  0  0  0  0  0  0  0  0  0  0
  -35.3285    0.1208  -47.3205 O   0  0  0  0  0  0  0  0  0  0  0  0
  -37.2143    1.3178  -47.3491 N   0  0  0  0  0  0  0  0  0  0  0  0
  -37.9647    2.2902  -46.7939 C   0  0  0  0  0  0  0  0  0  0  0  0
  -37.5634    2.9500  -45.7425 N   0  0  0  0  0  0  0  0  0  0  0  0
  -33.4798    7.7403  -41.8063 X   0  0  0  0  0  0  0  0  0  0  0  0
  1  2  2  0  0  0  0
  1  3  1  0  0  0  0
  1 16  1  0  0  0  0
  3  4  1  0  0  0  0
  3  8  1  0  0  0  0
  4  5  1  0  0  0  0
  5  6  1  0  0  0  0
  6  7  1  0  0  0  0
  6  9  1  0  0  0  0
  7  8  1  0  0  0  0
  9 10  2  0  0  0  0
  9 15  1  0  0  0  0
 10 11  1  0  0  0  0
 11 12  2  0  0  0  0
 11 13  1  0  0  0  0
 13 14  1  0  0  0  0
 14 15  2  0  0  0  0
M  END
> <Index>
14394

> <PropertyFieldDistance>
nan

$$$$
16466120
BBcorina  12272117083D 1   1.00000     0.00000 
CORINA 4.3.0 0026  30.10.2019
 12 13  0  0  0  0  0  0  0  0999 V2000
  -36.0520    2.2135  -46.4757 C   0  0  0  0  0  0  0  0  0  0  0  0
  -34.8440    2.1406  -46.5619 O   0  0  0  0  0  0  0  0  0  0  0  0
  -36.6641    3.0040  -45.4034 C   0  0  0  0  0  0  0  0  0  0  0  0
  -37.9578    3.1739  -45.1866 N   0  0  0  0  0  0  0  0  0  0  0  0
  -38.1255    3.9330  -44.1549 N   0  0  0  0  0  0  0  0  0  0  0  0
  -36.9668    4.2779  -43.6679 C   0  0  0  0  0  0  0  0  0  0  0  0
  -36.6521    5.1453  -42.4744 C   0  0  0  0  0  0  0  0  0  0  0  0
  -35.2697    4.9496  -42.1432 O   0  0  0  0  0  0  0  0  0  0  0  0
  -34.3800    5.0640  -43.2574 C   0  0  0  0  0  0  0  0  0  0  0  0
  -34.5768    3.8694  -44.2013 C   0  0  0  0  0  0  0  0  0  0  0  0
  -36.0116    3.7070  -44.4367 N   0  0  0  0  0  0  0  0  0  0  0  0
  -37.0752    1.3654  -47.6448 X   0  0  0  0  0  0  0  0  0  0  0  0
  1  2  2  0  0  0  0
  1  3  1  0  0  0  0
  1 12  1  0  0  0  0
  3  4  2  0  0  0  0
  3 11  1  0  0  0  0
  4  5  1  0  0  0  0
  5  6  2  0  0  0  0
  6  7  1  0  0  0  0
  6 11  1  0  0  0  0
  7  8  1  0  0  0  0
  8  9  1  0  0  0  0
  9 10  1  0  0  0  0
 10 11  1  0  0  0  0
M  END
> <Index>
14405

> <PropertyFieldDistance>
nan

$$$$
15499016
BBcorina  12272117083D 1   1.00000     0.00000 
CORINA 4.3.0 0026  30.10.2019
 13 14  0  0  0  0  0  0  0  0999 V2000
  -36.1363    2.4438  -44.8249 C   0  0  0  0  0  0  0  0  0  0  0  0
  -36.0894    3.5893  -43.9128 N   0  0  0  0  0  0  0  0  0  0  0  0
  -35.0357    4.0535  -43.3349 N   0  0  0  0  0  0  0  0  0  0  0  0
  -35.3086    5.0672  -42.5910 N   0  0  0  0  0  0  0  0  0  0  0  0
  -36.6264    5.3229  -42.6551 C   0  0  0  0  0  0  0  0  0  0  0  0
  -37.4833    6.2821  -42.0724 C   0  0  0  0  0  0  0  0  0  0  0  0
  -38.8455    6.2514  -42.3709 C   0  0  0  0  0  0  0  0  0  0  0  0
  -39.3514    5.2913  -43.2288 C   0  0  0  0  0  0  0  0  0  0  0  0
  -38.5219    4.3498  -43.8037 C   0  0  0  0  0  0  0  0  0  0  0  0
  -37.1608    4.3555  -43.5250 C   0  0  0  0  0  0  0  0  0  0  0  0
  -36.9464    7.3004  -41.1631 C   0  0  0  0  0  0  0  0  0  0  0  0
  -35.7606    7.3212  -40.9079 O   0  0  0  0  0  0  0  0  0  0  0  0
  -38.0288    8.4988  -40.4383 X   0  0  0  0  0  0  0  0  0  0  0  0
  1  2  1  0  0  0  0
  2  3  1  0  0  0  0
  2 10  1  0  0  0  0
  3  4  2  0  0  0  0
  4  5  1  0  0  0  0
  5  6  2  0  0  0  0
  5 10  1  0  0  0  0
  6  7  1  0  0  0  0
  6 11  1  0  0  0  0
  7  8  2  0  0  0  0
  8  9  1  0  0  0  0
  9 10  2  0  0  0  0
 11 12  2  0  0  0  0
 11 13  1  0  0  0  0
M  END
> <Index>
14429

> <PropertyFieldDistance>
nan

$$$$
16909742
BBcorina  12272117083D 1   1.00000     0.00000 
CORINA 4.3.0 0026  30.10.2019
 12 13  0  0  0  0  0  0  0  0999 V2000
  -36.7315    4.3127  -41.6349 C   0  0  0  0  0  0  0  0  0  0  0  0
  -37.4329    3.6105  -40.9469 O   0  0  0  0  0  0  0  0  0  0  0  0
  -35.9131    3.7040  -42.7443 C   0  0  0  0  0  0  0  0  0  0  0  0
  -36.1350    2.1476  -42.7772 C   0  0  0  0  0  0  0  0  0  0  0  0
  -35.3937    1.5787  -43.9989 C   0  0  0  0  0  0  0  0  0  0  0  0
  -33.9733    2.1892  -44.0092 C   0  0  0  0  0  0  0  0  0  0  0  0
  -34.0914    3.5069  -44.7988 C   0  0  0  0  0  0  0  0  0  0  0  0
  -35.5760    3.6123  -45.2175 C   0  0  0  0  0  0  0  0  0  0  0  0
  -36.3300    4.3227  -44.0806 C   0  0  0  0  0  0  0  0  0  0  0  0
  -36.0516    2.1613  -45.2480 C   0  0  0  0  0  0  0  0  0  0  0  0
  -36.7653    1.6143  -46.0541 O   0  0  0  0  0  0  0  0  0  0  0  0
  -36.6647    6.0567  -41.3404 X   0  0  0  0  0  0  0  0  0  0  0  0
  1  2  2  0  0  0  0
  1  3  1  0  0  0  0
  1 12  1  0  0  0  0
  3  4  1  0  0  0  0
  3  9  1  0  0  0  0
  4  5  1  0  0  0  0
  5  6  1  0  0  0  0
  5 10  1  0  0  0  0
  6  7  1  0  0  0  0
  7  8  1  0  0  0  0
  8  9  1  0  0  0  0
  8 10  1  0  0  0  0
 10 11  2  0  0  0  0
M  END
> <Index>
14444

> <PropertyFieldDistance>
nan

$$$$
15766772
BBcorina  12272117083D 1   1.00000     0.00000 
CORINA 4.3.0 0026  30.10.2019
 12 13  0  0  0  0  0  0  0  0999 V2000
  -36.0292    2.2323  -46.4773 C   0  0  0  0  0  0  0  0  0  0  0  0
  -34.8204    2.1667  -46.5556 O   0  0  0  0  0  0  0  0  0  0  0  0
  -36.6531    3.0135  -45.4048 C   0  0  0  0  0  0  0  0  0  0  0  0
  -37.9482    3.1745  -45.1964 N   0  0  0  0  0  0  0  0  0  0  0  0
  -38.1268    3.9237  -44.1632 N   0  0  0  0  0  0  0  0  0  0  0  0
  -36.9712    4.2746  -43.6651 C   0  0  0  0  0  0  0  0  0  0  0  0
  -36.6991    5.1413  -42.4606 C   0  0  0  0  0  0  0  0  0  0  0  0
  -35.2365    4.9364  -42.0441 C   0  0  0  0  0  0  0  0  0  0  0  0
  -34.3372    5.0637  -43.2773 C   0  0  0  0  0  0  0  0  0  0  0  0
  -34.5709    3.8674  -44.2073 C   0  0  0  0  0  0  0  0  0  0  0  0
  -36.0089    3.7166  -44.4274 N   0  0  0  0  0  0  0  0  0  0  0  0
  -37.0398    1.3851  -47.6580 X   0  0  0  0  0  0  0  0  0  0  0  0
  1  2  2  0  0  0  0
  1  3  1  0  0  0  0
  1 12  1  0  0  0  0
  3  4  2  0  0  0  0
  3 11  1  0  0  0  0
  4  5  1  0  0  0  0
  5  6  2  0  0  0  0
  6  7  1  0  0  0  0
  6 11  1  0  0  0  0
  7  8  1  0  0  0  0
  8  9  1  0  0  0  0
  9 10  1  0  0  0  0
 10 11  1  0  0  0  0
M  END
> <Index>
14468

> <PropertyFieldDistance>
nan

$$$$
16656106
BBcorina  12272117083D 1   1.00000     0.00000 
CORINA 4.3.0 0026  30.10.2019
 13 13  0  0  0  0  0  0  0  0999 V2000
  -36.5848    1.6868  -45.9797 F   0  0  0  0  0  0  0  0  0  0  0  0
  -36.1582    1.8907  -44.4406 S   0  0  0  0  0  0  0  0  0  0  0  0
  -37.2816    1.5081  -43.6589 O   0  0  0  0  0  0  0  0  0  0  0  0
  -34.8744    1.2985  -44.2983 O   0  0  0  0  0  0  0  0  0  0  0  0
  -35.9528    3.5161  -44.2000 N   0  0  0  0  0  0  0  0  0  0  0  0
  -37.0775    4.3570  -43.7678 C   0  0  0  0  0  0  0  0  0  0  0  0
  -36.6621    5.1282  -42.5110 C   0  0  0  0  0  0  0  0  0  0  0  0
  -35.3721    5.9013  -42.7949 C   0  0  0  0  0  0  0  0  0  0  0  0
  -34.2541    4.9185  -43.1502 C   0  0  0  0  0  0  0  0  0  0  0  0
  -34.6409    4.1439  -44.4087 C   0  0  0  0  0  0  0  0  0  0  0  0
  -34.9786    6.6881  -41.5714 C   0  0  0  0  0  0  0  0  0  0  0  0
  -33.9147    6.4830  -41.0380 O   0  0  0  0  0  0  0  0  0  0  0  0
  -36.0758    7.9126  -40.9159 X   0  0  0  0  0  0  0  0  0  0  0  0
  1  2  1  0  0  0  0
  2  3  2  0  0  0  0
  2  4  2  0  0  0  0
  2  5  1  0  0  0  0
  5  6  1  0  0  0  0
  5 10  1  0  0  0  0
  6  7  1  0  0  0  0
  7  8  1  0  0  0  0
  8  9  1  0  0  0  0
  8 11  1  0  0  0  0
  9 10  1  0  0  0  0
 11 12  2  0  0  0  0
 11 13  1  0  0  0  0
M  END
> <Index>
14473

> <PropertyFieldDistance>
nan

$$$$
15766756
BBcorina  12272117083D 1   1.00000     0.00000 
CORINA 4.3.0 0026  30.10.2019
 11 11  0  0  0  0  0  0  0  0999 V2000
  -36.2531    3.3190  -45.2600 C   0  0  0  0  0  0  0  0  0  0  0  0
  -35.9580    3.1319  -43.8331 N   0  0  0  0  0  0  0  0  0  0  0  0
  -36.9492    3.8198  -42.9961 C   0  0  0  0  0  0  0  0  0  0  0  0
  -36.7424    5.3056  -43.0599 C   0  0  0  0  0  0  0  0  0  0  0  0
  -35.6470    5.8548  -43.4885 C   0  0  0  0  0  0  0  0  0  0  0  0
  -34.4700    5.0567  -43.9753 C   0  0  0  0  0  0  0  0  0  0  0  0
  -34.6020    3.6046  -43.5087 C   0  0  0  0  0  0  0  0  0  0  0  0
  -33.5687    2.7369  -44.2299 C   0  0  0  0  0  0  0  0  0  0  0  0
  -33.6185    1.3347  -43.6798 C   0  0  0  0  0  0  0  0  0  0  0  0
  -34.3998    1.0580  -42.8016 O   0  0  0  0  0  0  0  0  0  0  0  0
  -32.5318    0.0934  -44.3210 X   0  0  0  0  0  0  0  0  0  0  0  0
  1  2  1  0  0  0  0
  2  3  1  0  0  0  0
  2  7  1  0  0  0  0
  3  4  1  0  0  0  0
  4  5  2  0  0  0  0
  5  6  1  0  0  0  0
  6  7  1  0  0  0  0
  7  8  1  0  0  0  0
  8  9  1  0  0  0  0
  9 10  2  0  0  0  0
  9 11  1  0  0  0  0
M  END
> <Index>
14482

> <PropertyFieldDistance>
nan

$$$$
16946144
BBcorina  12272117083D 1   1.00000     0.00000 
CORINA 4.3.0 0026  30.10.2019
 16 17  0  0  0  0  0  0  0  0999 V2000
  -34.7571    5.9924  -41.2699 C   0  0  0  0  0  0  0  0  0  0  0  0
  -35.2279    4.8497  -42.0640 N   0  0  0  0  0  0  0  0  0  0  0  0
  -36.5977    5.0700  -42.5412 C   0  0  0  0  0  0  0  0  0  0  0  0
  -36.9733    3.9126  -43.4750 C   0  0  0  0  0  0  0  0  0  0  0  0
  -36.1363    4.0008  -44.6767 N   0  0  0  0  0  0  0  0  0  0  0  0
  -36.3482    2.8404  -45.5521 C   0  0  0  0  0  0  0  0  0  0  0  0
  -35.9506    1.5824  -44.8237 C   0  0  0  0  0  0  0  0  0  0  0  0
  -35.4278    1.6532  -43.7375 O   0  0  0  0  0  0  0  0  0  0  0  0
  -34.7792    4.1528  -44.3643 C   0  0  0  0  0  0  0  0  0  0  0  0
  -33.8468    3.8804  -45.3607 C   0  0  0  0  0  0  0  0  0  0  0  0
  -32.4957    4.0205  -45.1116 C   0  0  0  0  0  0  0  0  0  0  0  0
  -32.0618    4.4451  -43.8678 C   0  0  0  0  0  0  0  0  0  0  0  0
  -30.7405    4.5896  -43.6259 F   0  0  0  0  0  0  0  0  0  0  0  0
  -32.9809    4.7155  -42.8709 C   0  0  0  0  0  0  0  0  0  0  0  0
  -34.3440    4.5690  -43.1117 C   0  0  0  0  0  0  0  0  0  0  0  0
  -36.2498    0.0011  -45.5606 X   0  0  0  0  0  0  0  0  0  0  0  0
  1  2  1  0  0  0  0
  2  3  1  0  0  0  0
  2 15  1  0  0  0  0
  3  4  1  0  0  0  0
  4  5  1  0  0  0  0
  5  6  1  0  0  0  0
  5  9  1  0  0  0  0
  6  7  1  0  0  0  0
  7  8  2  0  0  0  0
  7 16  1  0  0  0  0
  9 10  2  0  0  0  0
  9 15  1  0  0  0  0
 10 11  1  0  0  0  0
 11 12  2  0  0  0  0
 12 13  1  0  0  0  0
 12 14  1  0  0  0  0
 14 15  2  0  0  0  0
M  END
> <Index>
14510

> <PropertyFieldDistance>
nan

$$$$
16466178
BBcorina  12272117083D 1   1.00000     0.00000 
CORINA 4.3.0 0026  30.10.2019
 13 13  0  0  0  0  0  0  0  0999 V2000
  -38.3377    3.6508  -43.0067 C   0  0  0  0  0  0  0  0  0  0  0  0
  -37.0784    4.2430  -43.6428 C   0  0  0  0  0  0  0  0  0  0  0  0
  -36.4027    5.2374  -42.6743 C   0  0  0  0  0  0  0  0  0  0  0  0
  -34.8880    5.0293  -42.8786 C   0  0  0  0  0  0  0  0  0  0  0  0
  -34.2359    6.3220  -43.3736 C   0  0  0  0  0  0  0  0  0  0  0  0
  -34.3119    7.3843  -42.2752 C   0  0  0  0  0  0  0  0  0  0  0  0
  -33.6697    8.6576  -42.7626 C   0  0  0  0  0  0  0  0  0  0  0  0
  -33.1998    8.7098  -43.8739 O   0  0  0  0  0  0  0  0  0  0  0  0
  -34.7759    3.9267  -43.9534 C   0  0  0  0  0  0  0  0  0  0  0  0
  -34.6153    4.5491  -45.3418 C   0  0  0  0  0  0  0  0  0  0  0  0
  -36.0596    3.1845  -43.8635 N   0  0  0  0  0  0  0  0  0  0  0  0
  -36.3284    2.4456  -45.1044 C   0  0  0  0  0  0  0  0  0  0  0  0
  -33.6040   10.0764  -41.7065 X   0  0  0  0  0  0  0  0  0  0  0  0
  1  2  1  0  0  0  0
  2  3  1  0  0  0  0
  2 11  1  0  0  0  0
  3  4  1  0  0  0  0
  4  5  1  0  0  0  0
  4  9  1  0  0  0  0
  5  6  1  0  0  0  0
  6  7  1  0  0  0  0
  7  8  2  0  0  0  0
  7 13  1  0  0  0  0
  9 10  1  0  0  0  0
  9 11  1  0  0  0  0
 11 12  1  0  0  0  0
M  END
> <Index>
14612

> <PropertyFieldDistance>
nan

$$$$
16472428
BBcorina  12272117083D 1   1.00000     0.00000 
CORINA 4.3.0 0026  30.10.2019
 12 13  0  0  0  0  0  0  0  0999 V2000
  -35.0670    6.8834  -41.7789 C   0  0  0  0  0  0  0  0  0  0  0  0
  -35.7005    6.8461  -40.7515 O   0  0  0  0  0  0  0  0  0  0  0  0
  -35.4207    5.9599  -42.9162 C   0  0  0  0  0  0  0  0  0  0  0  0
  -36.6010    5.0738  -42.5076 C   0  0  0  0  0  0  0  0  0  0  0  0
  -37.1133    4.3021  -43.7282 C   0  0  0  0  0  0  0  0  0  0  0  0
  -35.9779    3.6415  -44.3807 N   0  0  0  0  0  0  0  0  0  0  0  0
  -36.0084    2.6747  -45.2237 N   0  0  0  0  0  0  0  0  0  0  0  0
  -34.8107    2.3564  -45.5771 N   0  0  0  0  0  0  0  0  0  0  0  0
  -33.9421    3.1523  -44.9372 C   0  0  0  0  0  0  0  0  0  0  0  0
  -34.6805    3.9759  -44.1723 C   0  0  0  0  0  0  0  0  0  0  0  0
  -34.2146    5.0704  -43.2488 C   0  0  0  0  0  0  0  0  0  0  0  0
  -33.7277    8.0277  -41.9520 X   0  0  0  0  0  0  0  0  0  0  0  0
  1  2  2  0  0  0  0
  1  3  1  0  0  0  0
  1 12  1  0  0  0  0
  3  4  1  0  0  0  0
  3 11  1  0  0  0  0
  4  5  1  0  0  0  0
  5  6  1  0  0  0  0
  6  7  1  0  0  0  0
  6 10  1  0  0  0  0
  7  8  2  0  0  0  0
  8  9  1  0  0  0  0
  9 10  2  0  0  0  0
 10 11  1  0  0  0  0
M  END
> <Index>
14702

> <PropertyFieldDistance>
nan

$$$$
12624870
BBcorina  12272117083D 1   1.00000     0.00000 
CORINA 4.3.0 0026  30.10.2019
 12 13  0  0  0  0  0  0  0  0999 V2000
  -35.9832    2.2379  -46.4742 C   0  0  0  0  0  0  0  0  0  0  0  0
  -34.7722    2.1871  -46.5284 O   0  0  0  0  0  0  0  0  0  0  0  0
  -36.6376    3.0101  -45.4145 C   0  0  0  0  0  0  0  0  0  0  0  0
  -37.9412    3.1460  -45.2453 N   0  0  0  0  0  0  0  0  0  0  0  0
  -38.1656    3.9157  -44.1824 C   0  0  0  0  0  0  0  0  0  0  0  0
  -36.9712    4.2774  -43.6633 C   0  0  0  0  0  0  0  0  0  0  0  0
  -36.6998    5.1420  -42.4583 C   0  0  0  0  0  0  0  0  0  0  0  0
  -35.2364    4.9374  -42.0435 C   0  0  0  0  0  0  0  0  0  0  0  0
  -34.3395    5.0644  -43.2784 C   0  0  0  0  0  0  0  0  0  0  0  0
  -34.5690    3.8659  -44.2059 C   0  0  0  0  0  0  0  0  0  0  0  0
  -36.0079    3.7140  -44.4318 N   0  0  0  0  0  0  0  0  0  0  0  0
  -36.9595    1.3795  -47.6755 X   0  0  0  0  0  0  0  0  0  0  0  0
  1  2  2  0  0  0  0
  1  3  1  0  0  0  0
  1 12  1  0  0  0  0
  3  4  2  0  0  0  0
  3 11  1  0  0  0  0
  4  5  1  0  0  0  0
  5  6  2  0  0  0  0
  6  7  1  0  0  0  0
  6 11  1  0  0  0  0
  7  8  1  0  0  0  0
  8  9  1  0  0  0  0
  9 10  1  0  0  0  0
 10 11  1  0  0  0  0
M  END
> <Index>
14762

> <PropertyFieldDistance>
nan

$$$$
16712298
BBcorina  12272117083D 1   1.00000     0.00000 
CORINA 4.3.0 0026  30.10.2019
 12 13  0  0  0  0  0  0  0  0999 V2000
  -36.0293    2.2526  -44.6537 C   0  0  0  0  0  0  0  0  0  0  0  0
  -36.1564    3.6296  -44.1699 N   0  0  0  0  0  0  0  0  0  0  0  0
  -37.3058    4.3204  -44.0064 C   0  0  0  0  0  0  0  0  0  0  0  0
  -37.0427    5.5178  -43.5584 N   0  0  0  0  0  0  0  0  0  0  0  0
  -35.7176    5.6692  -43.4074 C   0  0  0  0  0  0  0  0  0  0  0  0
  -34.7213    6.5315  -43.0265 N   0  0  0  0  0  0  0  0  0  0  0  0
  -33.5033    5.8892  -43.1680 C   0  0  0  0  0  0  0  0  0  0  0  0
  -33.7413    4.6115  -43.6422 C   0  0  0  0  0  0  0  0  0  0  0  0
  -35.1207    4.4688  -43.7937 C   0  0  0  0  0  0  0  0  0  0  0  0
  -32.2383    6.4419  -42.8792 C   0  0  0  0  0  0  0  0  0  0  0  0
  -31.2338    5.7788  -43.0440 O   0  0  0  0  0  0  0  0  0  0  0  0
  -32.1143    8.1015  -42.2765 X   0  0  0  0  0  0  0  0  0  0  0  0
  1  2  1  0  0  0  0
  2  3  1  0  0  0  0
  2  9  1  0  0  0  0
  3  4  2  0  0  0  0
  4  5  1  0  0  0  0
  5  6  1  0  0  0  0
  5  9  2  0  0  0  0
  6  7  1  0  0  0  0
  7  8  2  0  0  0  0
  7 10  1  0  0  0  0
  8  9  1  0  0  0  0
 10 11  2  0  0  0  0
 10 12  1  0  0  0  0
M  END
> <Index>
14765

> <PropertyFieldDistance>
nan

$$$$
16892154
BBcorina  12272117083D 1   1.00000     0.00000 
CORINA 4.3.0 0026  30.10.2019
 13 14  0  0  0  0  0  0  0  0999 V2000
  -35.7935    2.0069  -46.7868 Br  0  0  0  0  0  0  0  0  0  0  0  0
  -36.6292    3.0068  -45.4165 C   0  0  0  0  0  0  0  0  0  0  0  0
  -37.9563    3.1580  -45.2242 C   0  0  0  0  0  0  0  0  0  0  0  0
  -38.1348    3.9392  -44.1463 N   0  0  0  0  0  0  0  0  0  0  0  0
  -36.9744    4.2760  -43.6646 C   0  0  0  0  0  0  0  0  0  0  0  0
  -36.6982    5.1424  -42.4587 C   0  0  0  0  0  0  0  0  0  0  0  0
  -35.2361    4.9344  -42.0437 C   0  0  0  0  0  0  0  0  0  0  0  0
  -34.3380    5.0640  -43.2774 C   0  0  0  0  0  0  0  0  0  0  0  0
  -34.5688    3.8668  -44.2061 C   0  0  0  0  0  0  0  0  0  0  0  0
  -36.0080    3.7145  -44.4309 N   0  0  0  0  0  0  0  0  0  0  0  0
  -34.8475    5.9762  -41.0266 C   0  0  0  0  0  0  0  0  0  0  0  0
  -35.6548    6.7985  -40.6657 O   0  0  0  0  0  0  0  0  0  0  0  0
  -33.2076    5.9946  -40.3608 X   0  0  0  0  0  0  0  0  0  0  0  0
  1  2  1  0  0  0  0
  2  3  2  0  0  0  0
  2 10  1  0  0  0  0
  3  4  1  0  0  0  0
  4  5  2  0  0  0  0
  5  6  1  0  0  0  0
  5 10  1  0  0  0  0
  6  7  1  0  0  0  0
  7  8  1  0  0  0  0
  7 11  1  0  0  0  0
  8  9  1  0  0  0  0
  9 10  1  0  0  0  0
 11 12  2  0  0  0  0
 11 13  1  0  0  0  0
M  END
> <Index>
14781

> <PropertyFieldDistance>
nan

$$$$
13217084
BBcorina  12272117083D 1   1.00000     0.00000 
CORINA 4.3.0 0026  30.10.2019
 11 11  0  0  0  0  0  0  0  0999 V2000
  -35.7094    1.5111  -45.6816 C   0  0  0  0  0  0  0  0  0  0  0  0
  -36.6240    2.6776  -45.3026 C   0  0  0  0  0  0  0  0  0  0  0  0
  -38.0676    2.1811  -45.1995 C   0  0  0  0  0  0  0  0  0  0  0  0
  -36.2025    3.2298  -44.0083 N   0  0  0  0  0  0  0  0  0  0  0  0
  -37.1083    4.3249  -43.5763 C   0  0  0  0  0  0  0  0  0  0  0  0
  -36.2557    5.1057  -42.5424 C   0  0  0  0  0  0  0  0  0  0  0  0
  -34.8361    5.0446  -43.1515 C   0  0  0  0  0  0  0  0  0  0  0  0
  -34.8559    3.8341  -44.1030 C   0  0  0  0  0  0  0  0  0  0  0  0
  -33.8126    2.8320  -43.6808 C   0  0  0  0  0  0  0  0  0  0  0  0
  -34.1436    1.7185  -43.3507 O   0  0  0  0  0  0  0  0  0  0  0  0
  -32.1022    3.2870  -43.6688 X   0  0  0  0  0  0  0  0  0  0  0  0
  1  2  1  0  0  0  0
  2  3  1  0  0  0  0
  2  4  1  0  0  0  0
  4  5  1  0  0  0  0
  4  8  1  0  0  0  0
  5  6  1  0  0  0  0
  6  7  1  0  0  0  0
  7  8  1  0  0  0  0
  8  9  1  0  0  0  0
  9 10  2  0  0  0  0
  9 11  1  0  0  0  0
M  END
> <Index>
14785

> <PropertyFieldDistance>
nan

$$$$
14721740
BBcorina  12272117083D 1   1.00000     0.00000 
CORINA 4.3.0 0026  30.10.2019
 13 13  0  0  0  0  0  0  0  0999 V2000
  -36.6373    1.4047  -45.0463 C   0  0  0  0  0  0  0  0  0  0  0  0
  -35.9762    2.6759  -45.5828 C   0  0  0  0  0  0  0  0  0  0  0  0
  -36.8434    3.2719  -46.6934 C   0  0  0  0  0  0  0  0  0  0  0  0
  -35.8363    3.6493  -44.4969 N   0  0  0  0  0  0  0  0  0  0  0  0
  -36.9454    4.0939  -43.8534 C   0  0  0  0  0  0  0  0  0  0  0  0
  -36.8544    4.9921  -42.8466 C   0  0  0  0  0  0  0  0  0  0  0  0
  -35.5882    5.4807  -42.4519 C   0  0  0  0  0  0  0  0  0  0  0  0
  -34.4589    5.0189  -43.1077 C   0  0  0  0  0  0  0  0  0  0  0  0
  -34.6102    4.0864  -44.1548 C   0  0  0  0  0  0  0  0  0  0  0  0
  -33.6281    3.6715  -44.7479 O   0  0  0  0  0  0  0  0  0  0  0  0
  -35.4705    6.4633  -41.3526 C   0  0  0  0  0  0  0  0  0  0  0  0
  -34.3832    6.8742  -41.0235 O   0  0  0  0  0  0  0  0  0  0  0  0
  -36.9230    7.0373  -40.5194 X   0  0  0  0  0  0  0  0  0  0  0  0
  1  2  1  0  0  0  0
  2  3  1  0  0  0  0
  2  4  1  0  0  0  0
  4  5  1  0  0  0  0
  4  9  1  0  0  0  0
  5  6  2  0  0  0  0
  6  7  1  0  0  0  0
  7  8  2  0  0  0  0
  7 11  1  0  0  0  0
  8  9  1  0  0  0  0
  9 10  2  0  0  0  0
 11 12  2  0  0  0  0
 11 13  1  0  0  0  0
M  END
> <Index>
14806

> <PropertyFieldDistance>
nan

$$$$
17541894
BBcorina  12272117083D 1   1.00000     0.00000 
CORINA 4.3.0 0026  30.10.2019
 16 17  0  0  0  0  0  0  0  0999 V2000
  -34.6958    6.1511  -41.2749 C   0  0  0  0  0  0  0  0  0  0  0  0
  -35.2269    5.4981  -42.4789 N   0  0  0  0  0  0  0  0  0  0  0  0
  -36.5409    4.8952  -42.2147 C   0  0  0  0  0  0  0  0  0  0  0  0
  -37.0940    4.2962  -43.5101 C   0  0  0  0  0  0  0  0  0  0  0  0
  -36.1512    3.2931  -44.0245 N   0  0  0  0  0  0  0  0  0  0  0  0
  -36.6824    2.6402  -45.2284 C   0  0  0  0  0  0  0  0  0  0  0  0
  -35.6017    1.8050  -45.8652 C   0  0  0  0  0  0  0  0  0  0  0  0
  -35.3684    0.5676  -45.5980 N   0  0  0  0  0  0  0  0  0  0  0  0
  -34.3630    0.0024  -46.2720 C   0  0  0  0  0  0  0  0  0  0  0  0
  -33.7306    0.8341  -47.1505 C   0  0  0  0  0  0  0  0  0  0  0  0
  -34.4699    2.3748  -47.0857 S   0  0  0  0  0  0  0  0  0  0  0  0
  -33.9714   -1.3960  -46.0841 C   0  0  0  0  0  0  0  0  0  0  0  0
  -33.0495   -1.8591  -46.7232 O   0  0  0  0  0  0  0  0  0  0  0  0
  -34.8373    3.8961  -44.2886 C   0  0  0  0  0  0  0  0  0  0  0  0
  -34.2842    4.4950  -42.9933 C   0  0  0  0  0  0  0  0  0  0  0  0
  -34.8424   -2.4109  -44.9248 X   0  0  0  0  0  0  0  0  0  0  0  0
  1  2  1  0  0  0  0
  2  3  1  0  0  0  0
  2 15  1  0  0  0  0
  3  4  1  0  0  0  0
  4  5  1  0  0  0  0
  5  6  1  0  0  0  0
  5 14  1  0  0  0  0
  6  7  1  0  0  0  0
  7  8  2  0  0  0  0
  7 11  1  0  0  0  0
  8  9  1  0  0  0  0
  9 10  2  0  0  0  0
  9 12  1  0  0  0  0
 10 11  1  0  0  0  0
 12 13  2  0  0  0  0
 12 16  1  0  0  0  0
 14 15  1  0  0  0  0
M  END
> <Index>
14848

> <PropertyFieldDistance>
nan

$$$$
6463842
BBcorina  12272117083D 1   1.00000     0.00000 
CORINA 4.3.0 0026  30.10.2019
 12 13  0  0  0  0  0  0  0  0999 V2000
  -39.2711    2.8052  -43.8975 C   0  0  0  0  0  0  0  0  0  0  0  0
  -39.2408    2.4453  -45.0499 O   0  0  0  0  0  0  0  0  0  0  0  0
  -37.9866    2.9820  -43.1294 C   0  0  0  0  0  0  0  0  0  0  0  0
  -37.8298    4.4548  -42.6733 C   0  0  0  0  0  0  0  0  0  0  0  0
  -36.5760    4.9429  -43.4122 C   0  0  0  0  0  0  0  0  0  0  0  0
  -35.7272    5.9178  -42.6079 C   0  0  0  0  0  0  0  0  0  0  0  0
  -34.4860    6.2552  -43.4486 C   0  0  0  0  0  0  0  0  0  0  0  0
  -33.7329    4.9816  -43.8309 C   0  0  0  0  0  0  0  0  0  0  0  0
  -34.6737    3.9795  -44.5173 C   0  0  0  0  0  0  0  0  0  0  0  0
  -35.7748    3.7047  -43.6040 N   0  0  0  0  0  0  0  0  0  0  0  0
  -36.7662    2.7137  -44.0497 C   0  0  0  0  0  0  0  0  0  0  0  0
  -40.8243    3.1178  -43.1084 X   0  0  0  0  0  0  0  0  0  0  0  0
  1  2  2  0  0  0  0
  1  3  1  0  0  0  0
  1 12  1  0  0  0  0
  3  4  1  0  0  0  0
  3 11  1  0  0  0  0
  4  5  1  0  0  0  0
  5  6  1  0  0  0  0
  5 10  1  0  0  0  0
  6  7  1  0  0  0  0
  7  8  1  0  0  0  0
  8  9  1  0  0  0  0
  9 10  1  0  0  0  0
 10 11  1  0  0  0  0
M  END
> <Index>
14852

> <PropertyFieldDistance>
nan

$$$$
517886
BBcorina  12272117083D 1   1.00000     0.00000 
CORINA 4.3.0 0026  30.10.2019
 13 13  0  0  0  0  0  0  0  0999 V2000
  -36.5970    1.6810  -46.0236 N   0  0  0  0  0  0  0  0  0  0  0  0
  -36.1582    1.8906  -44.4407 S   0  0  0  0  0  0  0  0  0  0  0  0
  -37.2815    1.5080  -43.6589 O   0  0  0  0  0  0  0  0  0  0  0  0
  -34.8743    1.2985  -44.2984 O   0  0  0  0  0  0  0  0  0  0  0  0
  -35.9528    3.5162  -44.2000 N   0  0  0  0  0  0  0  0  0  0  0  0
  -37.0775    4.3569  -43.7677 C   0  0  0  0  0  0  0  0  0  0  0  0
  -36.6621    5.1282  -42.5111 C   0  0  0  0  0  0  0  0  0  0  0  0
  -35.3722    5.9013  -42.7950 C   0  0  0  0  0  0  0  0  0  0  0  0
  -34.2541    4.9185  -43.1502 C   0  0  0  0  0  0  0  0  0  0  0  0
  -34.6409    4.1438  -44.4087 C   0  0  0  0  0  0  0  0  0  0  0  0
  -34.9787    6.6881  -41.5714 C   0  0  0  0  0  0  0  0  0  0  0  0
  -33.9148    6.4831  -41.0380 O   0  0  0  0  0  0  0  0  0  0  0  0
  -36.0758    7.9125  -40.9159 X   0  0  0  0  0  0  0  0  0  0  0  0
  1  2  1  0  0  0  0
  2  3  2  0  0  0  0
  2  4  2  0  0  0  0
  2  5  1  0  0  0  0
  5  6  1  0  0  0  0
  5 10  1  0  0  0  0
  6  7  1  0  0  0  0
  7  8  1  0  0  0  0
  8  9  1  0  0  0  0
  8 11  1  0  0  0  0
  9 10  1  0  0  0  0
 11 12  2  0  0  0  0
 11 13  1  0  0  0  0
M  END
> <Index>
14912

> <PropertyFieldDistance>
nan

$$$$
470264
BBcorina  12272117083D 1   1.00000     0.00000 
CORINA 4.3.0 0026  30.10.2019
 11 11  0  0  0  0  0  0  0  0999 V2000
  -36.3263    2.3527  -45.0020 C   0  0  0  0  0  0  0  0  0  0  0  0
  -35.9841    3.4679  -44.1156 N   0  0  0  0  0  0  0  0  0  0  0  0
  -37.0437    4.0342  -43.2902 C   0  0  0  0  0  0  0  0  0  0  0  0
  -36.6516    5.4314  -42.8079 C   0  0  0  0  0  0  0  0  0  0  0  0
  -35.2514    5.3615  -42.1868 C   0  0  0  0  0  0  0  0  0  0  0  0
  -34.2439    5.0565  -43.2980 C   0  0  0  0  0  0  0  0  0  0  0  0
  -34.7251    3.8950  -44.1194 C   0  0  0  0  0  0  0  0  0  0  0  0
  -33.9229    3.3171  -44.8218 O   0  0  0  0  0  0  0  0  0  0  0  0
  -34.9145    6.6828  -41.5451 C   0  0  0  0  0  0  0  0  0  0  0  0
  -33.9539    7.3098  -41.9226 O   0  0  0  0  0  0  0  0  0  0  0  0
  -35.9266    7.3156  -40.2383 X   0  0  0  0  0  0  0  0  0  0  0  0
  1  2  1  0  0  0  0
  2  3  1  0  0  0  0
  2  7  1  0  0  0  0
  3  4  1  0  0  0  0
  4  5  1  0  0  0  0
  5  6  1  0  0  0  0
  5  9  1  0  0  0  0
  6  7  1  0  0  0  0
  7  8  2  0  0  0  0
  9 10  2  0  0  0  0
  9 11  1  0  0  0  0
M  END
> <Index>
14914

> <PropertyFieldDistance>
nan

$$$$
488552
BBcorina  12272117083D 1   1.00000     0.00000 
CORINA 4.3.0 0026  30.10.2019
 11 11  0  0  0  0  0  0  0  0999 V2000
  -36.3570    2.2511  -44.7135 C   0  0  0  0  0  0  0  0  0  0  0  0
  -35.9946    3.5668  -44.1809 N   0  0  0  0  0  0  0  0  0  0  0  0
  -36.9744    4.4524  -43.8686 C   0  0  0  0  0  0  0  0  0  0  0  0
  -36.6770    5.6778  -43.3801 C   0  0  0  0  0  0  0  0  0  0  0  0
  -35.3273    6.0481  -43.1832 C   0  0  0  0  0  0  0  0  0  0  0  0
  -34.3313    5.1386  -43.4982 C   0  0  0  0  0  0  0  0  0  0  0  0
  -34.6962    3.8739  -44.0047 C   0  0  0  0  0  0  0  0  0  0  0  0
  -33.8335    3.0591  -44.2880 O   0  0  0  0  0  0  0  0  0  0  0  0
  -34.9842    7.3846  -42.6502 C   0  0  0  0  0  0  0  0  0  0  0  0
  -33.8270    7.6907  -42.4863 O   0  0  0  0  0  0  0  0  0  0  0  0
  -36.2690    8.5353  -42.2526 X   0  0  0  0  0  0  0  0  0  0  0  0
  1  2  1  0  0  0  0
  2  3  1  0  0  0  0
  2  7  1  0  0  0  0
  3  4  2  0  0  0  0
  4  5  1  0  0  0  0
  5  6  2  0  0  0  0
  5  9  1  0  0  0  0
  6  7  1  0  0  0  0
  7  8  2  0  0  0  0
  9 10  2  0  0  0  0
  9 11  1  0  0  0  0
M  END
> <Index>
14916

> <PropertyFieldDistance>
nan

$$$$
17782454
BBcorina  12272117083D 1   1.00000     0.00000 
CORINA 4.3.0 0026  30.10.2019
 12 13  0  0  0  0  0  0  0  0999 V2000
  -36.4485    1.1415  -43.8836 C   0  0  0  0  0  0  0  0  0  0  0  0
  -36.2712    0.5832  -42.8276 O   0  0  0  0  0  0  0  0  0  0  0  0
  -36.5911    2.6411  -43.9286 C   0  0  0  0  0  0  0  0  0  0  0  0
  -37.2512    3.1339  -42.6351 C   0  0  0  0  0  0  0  0  0  0  0  0
  -37.2691    4.6646  -42.6338 C   0  0  0  0  0  0  0  0  0  0  0  0
  -35.9322    5.1611  -42.7211 O   0  0  0  0  0  0  0  0  0  0  0  0
  -35.2557    4.8060  -43.9309 C   0  0  0  0  0  0  0  0  0  0  0  0
  -35.2097    3.2839  -44.0506 C   0  0  0  0  0  0  0  0  0  0  0  0
  -34.1481    2.6292  -43.1584 C   0  0  0  0  0  0  0  0  0  0  0  0
  -33.1735    2.7947  -44.3374 C   0  0  0  0  0  0  0  0  0  0  0  0
  -34.4062    2.7862  -45.2581 C   0  0  0  0  0  0  0  0  0  0  0  0
  -36.5409    0.1985  -45.3786 X   0  0  0  0  0  0  0  0  0  0  0  0
  1  2  2  0  0  0  0
  1  3  1  0  0  0  0
  1 12  1  0  0  0  0
  3  4  1  0  0  0  0
  3  8  1  0  0  0  0
  4  5  1  0  0  0  0
  5  6  1  0  0  0  0
  6  7  1  0  0  0  0
  7  8  1  0  0  0  0
  8  9  1  0  0  0  0
  8 11  1  0  0  0  0
  9 10  1  0  0  0  0
 10 11  1  0  0  0  0
M  END
> <Index>
14971

> <PropertyFieldDistance>
nan

$$$$
17511852
BBcorina  12272117083D 1   1.00000     0.00000 
CORINA 4.3.0 0026  30.10.2019
 12 13  0  0  0  0  0  0  0  0999 V2000
  -38.2942    4.4865  -44.3426 C   0  0  0  0  0  0  0  0  0  0  0  0
  -38.2493    4.4678  -45.5492 O   0  0  0  0  0  0  0  0  0  0  0  0
  -37.0867    4.0814  -43.5372 C   0  0  0  0  0  0  0  0  0  0  0  0
  -36.6280    5.2593  -42.6703 C   0  0  0  0  0  0  0  0  0  0  0  0
  -35.2737    4.9357  -42.0337 C   0  0  0  0  0  0  0  0  0  0  0  0
  -34.1906    4.9274  -43.1212 C   0  0  0  0  0  0  0  0  0  0  0  0
  -34.6868    4.0850  -44.2682 C   0  0  0  0  0  0  0  0  0  0  0  0
  -33.9906    3.5636  -45.2857 C   0  0  0  0  0  0  0  0  0  0  0  0
  -34.8492    2.8839  -46.0653 N   0  0  0  0  0  0  0  0  0  0  0  0
  -36.0527    2.9696  -45.5609 C   0  0  0  0  0  0  0  0  0  0  0  0
  -35.9952    3.7105  -44.4409 N   0  0  0  0  0  0  0  0  0  0  0  0
  -39.7809    4.9827  -43.5199 X   0  0  0  0  0  0  0  0  0  0  0  0
  1  2  2  0  0  0  0
  1  3  1  0  0  0  0
  1 12  1  0  0  0  0
  3  4  1  0  0  0  0
  3 11  1  0  0  0  0
  4  5  1  0  0  0  0
  5  6  1  0  0  0  0
  6  7  1  0  0  0  0
  7  8  2  0  0  0  0
  7 11  1  0  0  0  0
  8  9  1  0  0  0  0
  9 10  2  0  0  0  0
 10 11  1  0  0  0  0
M  END
> <Index>
14985

> <PropertyFieldDistance>
nan

$$$$
17511936
BBcorina  12272117083D 1   1.00000     0.00000 
CORINA 4.3.0 0026  30.10.2019
 13 14  0  0  0  0  0  0  0  0999 V2000
  -34.9321    5.9981  -40.9862 C   0  0  0  0  0  0  0  0  0  0  0  0
  -35.2746    4.9359  -42.0326 C   0  0  0  0  0  0  0  0  0  0  0  0
  -36.6314    5.2598  -42.6652 C   0  0  0  0  0  0  0  0  0  0  0  0
  -37.0803    4.0834  -43.5389 C   0  0  0  0  0  0  0  0  0  0  0  0
  -35.9826    3.7150  -44.4358 N   0  0  0  0  0  0  0  0  0  0  0  0
  -36.0534    2.9526  -45.5815 C   0  0  0  0  0  0  0  0  0  0  0  0
  -34.7629    2.8898  -46.0757 C   0  0  0  0  0  0  0  0  0  0  0  0
  -33.9813    3.5854  -45.2504 N   0  0  0  0  0  0  0  0  0  0  0  0
  -34.6951    4.0787  -44.2732 C   0  0  0  0  0  0  0  0  0  0  0  0
  -34.1978    4.9266  -43.1247 C   0  0  0  0  0  0  0  0  0  0  0  0
  -37.2093    2.3566  -46.1387 C   0  0  0  0  0  0  0  0  0  0  0  0
  -37.1246    1.7066  -47.1607 O   0  0  0  0  0  0  0  0  0  0  0  0
  -38.7789    2.5589  -45.3460 X   0  0  0  0  0  0  0  0  0  0  0  0
  1  2  1  0  0  0  0
  2  3  1  0  0  0  0
  2 10  1  0  0  0  0
  3  4  1  0  0  0  0
  4  5  1  0  0  0  0
  5  6  1  0  0  0  0
  5  9  1  0  0  0  0
  6  7  2  0  0  0  0
  6 11  1  0  0  0  0
  7  8  1  0  0  0  0
  8  9  2  0  0  0  0
  9 10  1  0  0  0  0
 11 12  2  0  0  0  0
 11 13  1  0  0  0  0
M  END
> <Index>
15011

> <PropertyFieldDistance>
nan

$$$$
12422752
BBcorina  12272117083D 1   1.00000     0.00000 
CORINA 4.3.0 0026  30.10.2019
 10 10  0  0  0  0  0  0  0  0999 V2000
  -36.2907    2.2702  -45.0555 C   0  0  0  0  0  0  0  0  0  0  0  0
  -36.0614    3.4080  -44.1616 N   0  0  0  0  0  0  0  0  0  0  0  0
  -37.1095    4.2182  -43.5221 C   0  0  0  0  0  0  0  0  0  0  0  0
  -36.3208    5.2601  -42.7056 C   0  0  0  0  0  0  0  0  0  0  0  0
  -34.9257    4.9313  -42.9679 O   0  0  0  0  0  0  0  0  0  0  0  0
  -34.8628    3.8807  -43.7936 C   0  0  0  0  0  0  0  0  0  0  0  0
  -33.8144    3.3995  -44.1756 O   0  0  0  0  0  0  0  0  0  0  0  0
  -37.9574    3.3655  -42.6139 C   0  0  0  0  0  0  0  0  0  0  0  0
  -37.5679    2.2745  -42.2727 O   0  0  0  0  0  0  0  0  0  0  0  0
  -39.5241    3.9630  -42.0471 X   0  0  0  0  0  0  0  0  0  0  0  0
  1  2  1  0  0  0  0
  2  3  1  0  0  0  0
  2  6  1  0  0  0  0
  3  4  1  0  0  0  0
  3  8  1  0  0  0  0
  4  5  1  0  0  0  0
  5  6  1  0  0  0  0
  6  7  2  0  0  0  0
  8  9  2  0  0  0  0
  8 10  1  0  0  0  0
M  END
> <Index>
15131

> <PropertyFieldDistance>
nan

$$$$
16717086
BBcorina  12272117083D 1   1.00000     0.00000 
CORINA 4.3.0 0026  30.10.2019
 13 13  0  0  0  0  0  0  0  0999 V2000
  -36.0436    0.0870  -45.3803 C   0  0  0  0  0  0  0  0  0  0  0  0
  -35.5704    1.5369  -45.5019 C   0  0  0  0  0  0  0  0  0  0  0  0
  -35.4199    1.8958  -46.9578 C   0  0  0  0  0  0  0  0  0  0  0  0
  -36.0679    2.8005  -47.4268 O   0  0  0  0  0  0  0  0  0  0  0  0
  -36.5828    2.4511  -44.8613 C   0  0  0  0  0  0  0  0  0  0  0  0
  -37.7406    2.1024  -44.7672 O   0  0  0  0  0  0  0  0  0  0  0  0
  -36.2016    3.6559  -44.3929 N   0  0  0  0  0  0  0  0  0  0  0  0
  -37.1448    4.5180  -43.6632 C   0  0  0  0  0  0  0  0  0  0  0  0
  -36.4800    4.9641  -42.3559 C   0  0  0  0  0  0  0  0  0  0  0  0
  -35.1995    5.5287  -42.6479 O   0  0  0  0  0  0  0  0  0  0  0  0
  -34.2777    4.6122  -43.2430 C   0  0  0  0  0  0  0  0  0  0  0  0
  -34.8282    4.1456  -44.5908 C   0  0  0  0  0  0  0  0  0  0  0  0
  -34.2934    0.9912  -47.9803 X   0  0  0  0  0  0  0  0  0  0  0  0
  1  2  1  0  0  0  0
  2  3  1  0  0  0  0
  2  5  1  0  0  0  0
  3  4  2  0  0  0  0
  3 13  1  0  0  0  0
  5  6  2  0  0  0  0
  5  7  1  0  0  0  0
  7  8  1  0  0  0  0
  7 12  1  0  0  0  0
  8  9  1  0  0  0  0
  9 10  1  0  0  0  0
 10 11  1  0  0  0  0
 11 12  1  0  0  0  0
M  END
> <Index>
15142

> <PropertyFieldDistance>
nan

$$$$
17310732
BBcorina  12272117083D 1   1.00000     0.00000 
CORINA 4.3.0 0026  30.10.2019
 10 12  0  0  0  0  0  0  0  0999 V2000
  -33.2941    3.0099  -43.8101 C   0  0  0  0  0  0  0  0  0  0  0  0
  -32.9257    3.7271  -44.7091 O   0  0  0  0  0  0  0  0  0  0  0  0
  -34.7045    2.4791  -43.7995 C   0  0  0  0  0  0  0  0  0  0  0  0
  -35.4611    2.9938  -45.0207 C   0  0  0  0  0  0  0  0  0  0  0  0
  -35.8195    4.4588  -45.2023 C   0  0  0  0  0  0  0  0  0  0  0  0
  -36.8186    3.5031  -44.5255 C   0  0  0  0  0  0  0  0  0  0  0  0
  -36.8262    3.4816  -42.9959 C   0  0  0  0  0  0  0  0  0  0  0  0
  -36.7063    2.1923  -42.2016 C   0  0  0  0  0  0  0  0  0  0  0  0
  -35.4437    2.9848  -42.5483 C   0  0  0  0  0  0  0  0  0  0  0  0
  -32.1777    2.5821  -42.5050 X   0  0  0  0  0  0  0  0  0  0  0  0
  1  2  2  0  0  0  0
  1  3  1  0  0  0  0
  1 10  1  0  0  0  0
  3  4  1  0  0  0  0
  3  9  1  0  0  0  0
  4  5  1  0  0  0  0
  4  6  1  0  0  0  0
  5  6  1  0  0  0  0
  6  7  1  0  0  0  0
  7  8  1  0  0  0  0
  7  9  1  0  0  0  0
  8  9  1  0  0  0  0
M  END
> <Index>
15149

> <PropertyFieldDistance>
nan

$$$$
16887794
BBcorina  12272117083D 1   1.00000     0.00000 
CORINA 4.3.0 0026  30.10.2019
 12 13  0  0  0  0  0  0  0  0999 V2000
  -37.0924    1.5543  -45.0539 O   0  0  0  0  0  0  0  0  0  0  0  0
  -35.7858    2.1330  -45.0491 C   0  0  0  0  0  0  0  0  0  0  0  0
  -35.8637    3.6826  -45.0527 C   0  0  0  0  0  0  0  0  0  0  0  0
  -34.4807    4.1185  -44.5160 C   0  0  0  0  0  0  0  0  0  0  0  0
  -33.9674    2.9524  -43.6521 C   0  0  0  0  0  0  0  0  0  0  0  0
  -35.0617    1.8608  -43.7042 C   0  0  0  0  0  0  0  0  0  0  0  0
  -36.0737    2.1702  -42.5871 C   0  0  0  0  0  0  0  0  0  0  0  0
  -36.4023    3.6642  -42.6119 C   0  0  0  0  0  0  0  0  0  0  0  0
  -36.9120    4.0747  -43.9967 C   0  0  0  0  0  0  0  0  0  0  0  0
  -35.1612    4.4533  -42.2835 C   0  0  0  0  0  0  0  0  0  0  0  0
  -35.0011    5.5521  -42.7583 O   0  0  0  0  0  0  0  0  0  0  0  0
  -33.9381    3.7697  -41.2021 X   0  0  0  0  0  0  0  0  0  0  0  0
  1  2  1  0  0  0  0
  2  3  1  0  0  0  0
  2  6  1  0  0  0  0
  3  4  1  0  0  0  0
  3  9  1  0  0  0  0
  4  5  1  0  0  0  0
  5  6  1  0  0  0  0
  6  7  1  0  0  0  0
  7  8  1  0  0  0  0
  8  9  1  0  0  0  0
  8 10  1  0  0  0  0
 10 11  2  0  0  0  0
 10 12  1  0  0  0  0
M  END
> <Index>
15156

> <PropertyFieldDistance>
nan

$$$$
15084322
BBcorina  12272117083D 1   1.00000     0.00000 
CORINA 4.3.0 0026  30.10.2019
 11 11  0  0  0  0  0  0  0  0999 V2000
  -33.1737    3.4461  -43.7413 C   0  0  0  0  0  0  0  0  0  0  0  0
  -32.7848    4.1438  -44.6470 O   0  0  0  0  0  0  0  0  0  0  0  0
  -34.5963    2.9490  -43.7304 C   0  0  0  0  0  0  0  0  0  0  0  0
  -35.2879    3.4312  -44.9998 C   0  0  0  0  0  0  0  0  0  0  0  0
  -36.4477    2.5264  -45.3340 C   0  0  0  0  0  0  0  0  0  0  0  0
  -37.6615    3.0098  -44.6675 O   0  0  0  0  0  0  0  0  0  0  0  0
  -37.5424    3.4876  -43.4033 C   0  0  0  0  0  0  0  0  0  0  0  0
  -38.1628    4.4776  -43.0953 O   0  0  0  0  0  0  0  0  0  0  0  0
  -36.6761    2.8386  -42.3812 C   0  0  0  0  0  0  0  0  0  0  0  0
  -35.2437    3.4036  -42.4810 C   0  0  0  0  0  0  0  0  0  0  0  0
  -32.0728    3.0074  -42.4266 X   0  0  0  0  0  0  0  0  0  0  0  0
  1  2  2  0  0  0  0
  1  3  1  0  0  0  0
  1 11  1  0  0  0  0
  3  4  1  0  0  0  0
  3 10  1  0  0  0  0
  4  5  1  0  0  0  0
  5  6  1  0  0  0  0
  6  7  1  0  0  0  0
  7  8  2  0  0  0  0
  7  9  1  0  0  0  0
  9 10  1  0  0  0  0
M  END
> <Index>
15167

> <PropertyFieldDistance>
nan

$$$$
17309354
BBcorina  12272117083D 1   1.00000     0.00000 
CORINA 4.3.0 0026  30.10.2019
 10 10  0  0  0  0  0  0  0  0999 V2000
  -36.1568    2.3773  -43.9413 C   0  0  0  0  0  0  0  0  0  0  0  0
  -36.0631    3.6928  -44.5883 N   0  0  0  0  0  0  0  0  0  0  0  0
  -36.9915    4.6527  -43.9687 C   0  0  0  0  0  0  0  0  0  0  0  0
  -36.7305    4.6786  -42.4606 C   0  0  0  0  0  0  0  0  0  0  0  0
  -35.2584    4.8435  -42.2040 C   0  0  0  0  0  0  0  0  0  0  0  0
  -34.3438    4.6287  -43.1372 C   0  0  0  0  0  0  0  0  0  0  0  0
  -34.6889    4.2077  -44.5370 C   0  0  0  0  0  0  0  0  0  0  0  0
  -34.8193    5.2570  -40.8716 C   0  0  0  0  0  0  0  0  0  0  0  0
  -33.6367    5.3973  -40.6389 O   0  0  0  0  0  0  0  0  0  0  0  0
  -36.0128    5.5529  -39.5985 X   0  0  0  0  0  0  0  0  0  0  0  0
  1  2  1  0  0  0  0
  2  3  1  0  0  0  0
  2  7  1  0  0  0  0
  3  4  1  0  0  0  0
  4  5  1  0  0  0  0
  5  6  2  0  0  0  0
  5  8  1  0  0  0  0
  6  7  1  0  0  0  0
  8  9  2  0  0  0  0
  8 10  1  0  0  0  0
M  END
> <Index>
15190

> <PropertyFieldDistance>
nan

$$$$
14320504
BBcorina  12272117083D 1   1.00000     0.00000 
CORINA 4.3.0 0026  30.10.2019
 16 17  0  0  0  0  0  0  0  0999 V2000
  -36.3508    2.3110  -44.9264 C   0  0  0  0  0  0  0  0  0  0  0  0
  -35.9987    3.4936  -44.1366 N   0  0  0  0  0  0  0  0  0  0  0  0
  -36.9613    4.1430  -43.4593 C   0  0  0  0  0  0  0  0  0  0  0  0
  -38.1091    3.7387  -43.5126 O   0  0  0  0  0  0  0  0  0  0  0  0
  -36.6512    5.3267  -42.6593 C   0  0  0  0  0  0  0  0  0  0  0  0
  -35.3618    5.7789  -42.6009 C   0  0  0  0  0  0  0  0  0  0  0  0
  -35.0151    6.9717  -41.8014 C   0  0  0  0  0  0  0  0  0  0  0  0
  -33.8584    7.2945  -41.6684 O   0  0  0  0  0  0  0  0  0  0  0  0
  -34.3270    5.0497  -43.3523 C   0  0  0  0  0  0  0  0  0  0  0  0
  -32.9954    5.4726  -43.3241 C   0  0  0  0  0  0  0  0  0  0  0  0
  -32.0396    4.7652  -44.0189 C   0  0  0  0  0  0  0  0  0  0  0  0
  -30.2354    5.3299  -43.9760 Br  0  0  0  0  0  0  0  0  0  0  0  0
  -32.3959    3.6467  -44.7615 C   0  0  0  0  0  0  0  0  0  0  0  0
  -33.7052    3.2209  -44.8044 C   0  0  0  0  0  0  0  0  0  0  0  0
  -34.6858    3.9137  -44.0993 C   0  0  0  0  0  0  0  0  0  0  0  0
  -36.2943    7.9279  -41.0382 X   0  0  0  0  0  0  0  0  0  0  0  0
  1  2  1  0  0  0  0
  2  3  1  0  0  0  0
  2 15  1  0  0  0  0
  3  4  2  0  0  0  0
  3  5  1  0  0  0  0
  5  6  2  0  0  0  0
  6  7  1  0  0  0  0
  6  9  1  0  0  0  0
  7  8  2  0  0  0  0
  7 16  1  0  0  0  0
  9 10  2  0  0  0  0
  9 15  1  0  0  0  0
 10 11  1  0  0  0  0
 11 12  1  0  0  0  0
 11 13  2  0  0  0  0
 13 14  1  0  0  0  0
 14 15  2  0  0  0  0
M  END
> <Index>
15234

> <PropertyFieldDistance>
nan

$$$$
17846292
BBcorina  12272117083D 1   1.00000     0.00000 
CORINA 4.3.0 0026  30.10.2019
 13 14  0  0  0  0  0  0  0  0999 V2000
  -34.4193    4.1801  -44.7874 O   0  0  0  0  0  0  0  0  0  0  0  0
  -33.7282    3.7067  -43.6297 C   0  0  0  0  0  0  0  0  0  0  0  0
  -33.7533    2.1771  -43.6107 C   0  0  0  0  0  0  0  0  0  0  0  0
  -35.2037    1.6913  -43.5730 C   0  0  0  0  0  0  0  0  0  0  0  0
  -35.9437    2.1981  -44.8125 C   0  0  0  0  0  0  0  0  0  0  0  0
  -37.1222    3.0730  -44.3807 C   0  0  0  0  0  0  0  0  0  0  0  0
  -36.6037    4.2648  -43.5734 C   0  0  0  0  0  0  0  0  0  0  0  0
  -35.8637    3.7580  -42.3339 C   0  0  0  0  0  0  0  0  0  0  0  0
  -34.4134    4.2438  -42.3716 C   0  0  0  0  0  0  0  0  0  0  0  0
  -35.8889    2.2283  -42.3148 C   0  0  0  0  0  0  0  0  0  0  0  0
  -37.8510    3.5723  -45.6016 C   0  0  0  0  0  0  0  0  0  0  0  0
  -37.9460    4.7588  -45.8050 O   0  0  0  0  0  0  0  0  0  0  0  0
  -38.5679    2.4195  -46.7374 X   0  0  0  0  0  0  0  0  0  0  0  0
  1  2  1  0  0  0  0
  2  3  1  0  0  0  0
  2  9  1  0  0  0  0
  3  4  1  0  0  0  0
  4  5  1  0  0  0  0
  4 10  1  0  0  0  0
  5  6  1  0  0  0  0
  6  7  1  0  0  0  0
  6 11  1  0  0  0  0
  7  8  1  0  0  0  0
  8  9  1  0  0  0  0
  8 10  1  0  0  0  0
 11 12  2  0  0  0  0
 11 13  1  0  0  0  0
M  END
> <Index>
15314

> <PropertyFieldDistance>
nan

$$$$
11685890
BBcorina  12272117083D 1   1.00000     0.00000 
CORINA 4.3.0 0026  30.10.2019
 14 16  0  0  0  0  0  0  0  0999 V2000
  -37.4553    5.7215  -42.7664 C   0  0  0  0  0  0  0  0  0  0  0  0
  -37.0195    6.3332  -43.7121 O   0  0  0  0  0  0  0  0  0  0  0  0
  -37.3262    4.2209  -42.7154 C   0  0  0  0  0  0  0  0  0  0  0  0
  -36.6101    3.7275  -43.9742 C   0  0  0  0  0  0  0  0  0  0  0  0
  -36.5893    2.1976  -43.9826 C   0  0  0  0  0  0  0  0  0  0  0  0
  -35.8732    1.7042  -45.2414 C   0  0  0  0  0  0  0  0  0  0  0  0
  -34.4378    2.2338  -45.2522 C   0  0  0  0  0  0  0  0  0  0  0  0
  -33.6978    1.7270  -44.0127 C   0  0  0  0  0  0  0  0  0  0  0  0
  -34.4139    2.2204  -42.7539 C   0  0  0  0  0  0  0  0  0  0  0  0
  -35.8493    1.6908  -42.7431 C   0  0  0  0  0  0  0  0  0  0  0  0
  -34.4347    3.7502  -42.7455 C   0  0  0  0  0  0  0  0  0  0  0  0
  -35.1747    4.2570  -43.9850 C   0  0  0  0  0  0  0  0  0  0  0  0
  -34.4586    3.7636  -45.2438 C   0  0  0  0  0  0  0  0  0  0  0  0
  -38.2457    6.5874  -41.4404 X   0  0  0  0  0  0  0  0  0  0  0  0
  1  2  2  0  0  0  0
  1  3  1  0  0  0  0
  1 14  1  0  0  0  0
  3  4  1  0  0  0  0
  4  5  1  0  0  0  0
  4 12  1  0  0  0  0
  5  6  1  0  0  0  0
  5 10  1  0  0  0  0
  6  7  1  0  0  0  0
  7  8  1  0  0  0  0
  7 13  1  0  0  0  0
  8  9  1  0  0  0  0
  9 10  1  0  0  0  0
  9 11  1  0  0  0  0
 11 12  1  0  0  0  0
 12 13  1  0  0  0  0
M  END
> <Index>
15332

> <PropertyFieldDistance>
nan

$$$$
11680016
BBcorina  12272117083D 1   1.00000     0.00000 
CORINA 4.3.0 0026  30.10.2019
 16 16  0  0  0  0  0  0  0  0999 V2000
  -33.6729    7.3811  -41.7543 C   0  0  0  0  0  0  0  0  0  0  0  0
  -32.9280    6.4452  -41.5879 O   0  0  0  0  0  0  0  0  0  0  0  0
  -35.0703    7.1496  -42.2690 C   0  0  0  0  0  0  0  0  0  0  0  0
  -35.2880    5.6527  -42.4982 C   0  0  0  0  0  0  0  0  0  0  0  0
  -36.7434    5.4049  -42.9010 C   0  0  0  0  0  0  0  0  0  0  0  0
  -36.9664    3.9019  -43.0960 C   0  0  0  0  0  0  0  0  0  0  0  0
  -35.9792    3.3986  -44.0608 N   0  0  0  0  0  0  0  0  0  0  0  0
  -34.5541    3.6565  -43.8129 C   0  0  0  0  0  0  0  0  0  0  0  0
  -34.3586    5.1671  -43.6129 C   0  0  0  0  0  0  0  0  0  0  0  0
  -36.3729    2.7086  -45.1495 C   0  0  0  0  0  0  0  0  0  0  0  0
  -37.5543    2.4975  -45.3405 O   0  0  0  0  0  0  0  0  0  0  0  0
  -35.4574    2.2532  -46.0254 O   0  0  0  0  0  0  0  0  0  0  0  0
  -35.9536    1.5181  -47.1751 C   0  0  0  0  0  0  0  0  0  0  0  0
  -34.7935    1.0910  -48.0370 C   0  0  0  0  0  0  0  0  0  0  0  0
  -34.7429   -0.1299  -48.5091 C   0  0  0  0  0  0  0  0  0  0  0  0
  -33.1235    9.0244  -41.3936 X   0  0  0  0  0  0  0  0  0  0  0  0
  1  2  2  0  0  0  0
  1  3  1  0  0  0  0
  1 16  1  0  0  0  0
  3  4  1  0  0  0  0
  4  5  1  0  0  0  0
  4  9  1  0  0  0  0
  5  6  1  0  0  0  0
  6  7  1  0  0  0  0
  7  8  1  0  0  0  0
  7 10  1  0  0  0  0
  8  9  1  0  0  0  0
 10 11  2  0  0  0  0
 10 12  1  0  0  0  0
 12 13  1  0  0  0  0
 13 14  1  0  0  0  0
 14 15  2  0  0  0  0
M  END
> <Index>
15366

> <PropertyFieldDistance>
nan

$$$$
16473472
BBcorina  12272117083D 1   1.00000     0.00000 
CORINA 4.3.0 0026  30.10.2019
 11 12  0  0  0  0  0  0  0  0999 V2000
  -37.8199    0.7627  -44.3526 C   0  0  0  0  0  0  0  0  0  0  0  0
  -38.8738    1.3523  -44.3444 O   0  0  0  0  0  0  0  0  0  0  0  0
  -36.5252    1.5339  -44.3609 C   0  0  0  0  0  0  0  0  0  0  0  0
  -36.6135    3.0614  -44.3518 C   0  0  0  0  0  0  0  0  0  0  0  0
  -35.5122    3.8304  -45.0983 C   0  0  0  0  0  0  0  0  0  0  0  0
  -35.1387    5.0708  -44.2901 C   0  0  0  0  0  0  0  0  0  0  0  0
  -34.0019    4.7851  -43.3289 C   0  0  0  0  0  0  0  0  0  0  0  0
  -34.3852    3.8282  -42.2176 C   0  0  0  0  0  0  0  0  0  0  0  0
  -34.6613    2.4268  -42.7571 C   0  0  0  0  0  0  0  0  0  0  0  0
  -36.1561    2.3069  -43.0931 C   0  0  0  0  0  0  0  0  0  0  0  0
  -37.7959   -1.0071  -44.3624 X   0  0  0  0  0  0  0  0  0  0  0  0
  1  2  2  0  0  0  0
  1  3  1  0  0  0  0
  1 11  1  0  0  0  0
  3  4  1  0  0  0  0
  3 10  1  0  0  0  0
  4  5  1  0  0  0  0
  4 10  1  0  0  0  0
  5  6  1  0  0  0  0
  6  7  1  0  0  0  0
  7  8  1  0  0  0  0
  8  9  1  0  0  0  0
  9 10  1  0  0  0  0
M  END
> <Index>
15418

> <PropertyFieldDistance>
nan

$$$$
13573534
BBcorina  12272117083D 1   1.00000     0.00000 
CORINA 4.3.0 0026  30.10.2019
 11 11  0  0  0  0  0  0  0  0999 V2000
  -33.1701    4.2183  -45.3841 C   0  0  0  0  0  0  0  0  0  0  0  0
  -33.1393    4.9842  -44.4510 O   0  0  0  0  0  0  0  0  0  0  0  0
  -34.0743    3.0135  -45.3405 C   0  0  0  0  0  0  0  0  0  0  0  0
  -34.8374    2.9963  -44.0145 C   0  0  0  0  0  0  0  0  0  0  0  0
  -35.6813    4.2554  -43.9236 C   0  0  0  0  0  0  0  0  0  0  0  0
  -36.3196    4.3814  -42.5380 C   0  0  0  0  0  0  0  0  0  0  0  0
  -37.6152    3.5986  -42.5299 C   0  0  0  0  0  0  0  0  0  0  0  0
  -37.5976    2.3035  -42.5370 C   0  0  0  0  0  0  0  0  0  0  0  0
  -36.2813    1.5563  -42.5530 C   0  0  0  0  0  0  0  0  0  0  0  0
  -35.6469    1.7139  -43.9367 C   0  0  0  0  0  0  0  0  0  0  0  0
  -32.1534    4.5109  -46.8031 X   0  0  0  0  0  0  0  0  0  0  0  0
  1  2  2  0  0  0  0
  1  3  1  0  0  0  0
  1 11  1  0  0  0  0
  3  4  1  0  0  0  0
  4  5  1  0  0  0  0
  4 10  1  0  0  0  0
  5  6  1  0  0  0  0
  6  7  1  0  0  0  0
  7  8  2  0  0  0  0
  8  9  1  0  0  0  0
  9 10  1  0  0  0  0
M  END
> <Index>
15421

> <PropertyFieldDistance>
nan

$$$$
10339496
BBcorina  12272117083D 1   1.00000     0.00000 
CORINA 4.3.0 0026  30.10.2019
 12 12  0  0  0  0  0  0  0  0999 V2000
  -36.0765    1.1251  -45.7142 C   0  0  0  0  0  0  0  0  0  0  0  0
  -37.0394    0.3984  -45.6586 O   0  0  0  0  0  0  0  0  0  0  0  0
  -35.7446    2.0263  -44.5529 C   0  0  0  0  0  0  0  0  0  0  0  0
  -35.7963    3.4920  -45.0041 C   0  0  0  0  0  0  0  0  0  0  0  0
  -34.4825    4.1802  -44.6564 C   0  0  0  0  0  0  0  0  0  0  0  0
  -34.0493    3.8060  -43.2379 C   0  0  0  0  0  0  0  0  0  0  0  0
  -34.8600    4.6249  -42.2227 C   0  0  0  0  0  0  0  0  0  0  0  0
  -36.2949    4.0834  -42.2119 C   0  0  0  0  0  0  0  0  0  0  0  0
  -36.2745    2.5811  -42.2202 C   0  0  0  0  0  0  0  0  0  0  0  0
  -35.8562    1.9755  -41.2628 O   0  0  0  0  0  0  0  0  0  0  0  0
  -36.7801    1.8302  -43.4312 C   0  0  0  0  0  0  0  0  0  0  0  0
  -35.0551    1.1316  -47.1597 X   0  0  0  0  0  0  0  0  0  0  0  0
  1  2  2  0  0  0  0
  1  3  1  0  0  0  0
  1 12  1  0  0  0  0
  3  4  1  0  0  0  0
  3 11  1  0  0  0  0
  4  5  1  0  0  0  0
  5  6  1  0  0  0  0
  6  7  1  0  0  0  0
  7  8  1  0  0  0  0
  8  9  1  0  0  0  0
  9 10  2  0  0  0  0
  9 11  1  0  0  0  0
M  END
> <Index>
15422

> <PropertyFieldDistance>
nan

$$$$
