15260602
BBcorina  12272117083D 1   1.00000     0.00000 
CORINA 4.3.0 0026  30.10.2019
 12 13  0  0  0  0  0  0  0  0999 V2000
  -38.6963    4.0923  -44.0257 C   0  0  0  0  0  0  0  0  0  0  0  0
  -39.2904    3.5246  -43.1408 O   0  0  0  0  0  0  0  0  0  0  0  0
  -37.1976    4.2346  -43.9565 C   0  0  0  0  0  0  0  0  0  0  0  0
  -36.6808    3.5765  -42.6738 C   0  0  0  0  0  0  0  0  0  0  0  0
  -35.1529    3.6969  -42.6323 C   0  0  0  0  0  0  0  0  0  0  0  0
  -34.5743    3.1040  -43.9163 C   0  0  0  0  0  0  0  0  0  0  0  0
  -34.5535    1.5699  -43.9248 C   0  0  0  0  0  0  0  0  0  0  0  0
  -33.1588    1.6666  -43.2827 C   0  0  0  0  0  0  0  0  0  0  0  0
  -33.0412    3.0567  -43.9312 C   0  0  0  0  0  0  0  0  0  0  0  0
  -35.1401    3.6726  -45.0951 O   0  0  0  0  0  0  0  0  0  0  0  0
  -36.5634    3.5510  -45.1701 C   0  0  0  0  0  0  0  0  0  0  0  0
  -39.5856    4.7573  -45.4040 X   0  0  0  0  0  0  0  0  0  0  0  0
  1  2  2  0  0  0  0
  1  3  1  0  0  0  0
  1 12  1  0  0  0  0
  3  4  1  0  0  0  0
  3 11  1  0  0  0  0
  4  5  1  0  0  0  0
  5  6  1  0  0  0  0
  6  7  1  0  0  0  0
  6  9  1  0  0  0  0
  6 10  1  0  0  0  0
  7  8  1  0  0  0  0
  8  9  1  0  0  0  0
 10 11  1  0  0  0  0
M  END
> <Index>
13441

> <PropertyFieldDistance>
nan

$$$$
