13462192
BBcorina  12272117083D 1   1.00000     0.00000 
CORINA 4.3.0 0026  30.10.2019
 15 16  0  0  0  0  0  0  0  0999 V2000
  -38.4372   -0.3696  -46.0135 C   0  0  0  0  0  0  0  0  0  0  0  0
  -37.3713    0.5753  -45.6708 N   0  0  0  0  0  0  0  0  0  0  0  0
  -37.5130    1.7067  -44.9330 C   0  0  0  0  0  0  0  0  0  0  0  0
  -36.2934    2.2970  -44.8501 C   0  0  0  0  0  0  0  0  0  0  0  0
  -35.3800    1.4966  -45.5517 C   0  0  0  0  0  0  0  0  0  0  0  0
  -36.0248    0.4689  -46.0413 N   0  0  0  0  0  0  0  0  0  0  0  0
  -35.9968    3.4960  -44.1749 N   0  0  0  0  0  0  0  0  0  0  0  0
  -37.1063    4.2551  -43.6116 C   0  0  0  0  0  0  0  0  0  0  0  0
  -36.6022    5.2285  -42.5454 C   0  0  0  0  0  0  0  0  0  0  0  0
  -35.4413    6.0376  -43.1314 C   0  0  0  0  0  0  0  0  0  0  0  0
  -34.2575    5.0945  -43.3600 C   0  0  0  0  0  0  0  0  0  0  0  0
  -34.7185    3.8664  -44.0911 C   0  0  0  0  0  0  0  0  0  0  0  0
  -33.8835    3.1746  -44.6348 O   0  0  0  0  0  0  0  0  0  0  0  0
  -37.6885    6.1368  -42.1542 N   0  0  0  0  0  0  0  0  0  0  0  0
  -37.5152    6.6343  -40.5274 X   0  0  0  0  0  0  0  0  0  0  0  0
  1  2  1  0  0  0  0
  2  3  1  0  0  0  0
  2  6  1  0  0  0  0
  3  4  2  0  0  0  0
  4  5  1  0  0  0  0
  4  7  1  0  0  0  0
  5  6  2  0  0  0  0
  7  8  1  0  0  0  0
  7 12  1  0  0  0  0
  8  9  1  0  0  0  0
  9 10  1  0  0  0  0
  9 14  1  0  0  0  0
 10 11  1  0  0  0  0
 11 12  1  0  0  0  0
 12 13  2  0  0  0  0
 14 15  1  0  0  0  0
M  END
> <Index>
20457

> <PropertyFieldDistance>
nan

$$$$
