9780416
BBcorina  12272117083D 1   1.00000     0.00000 
CORINA 4.3.0 0026  30.10.2019
 10 10  0  0  0  0  0  0  0  0999 V2000
  -38.3969    4.0943  -44.0211 C   0  0  0  0  0  0  0  0  0  0  0  0
  -36.9723    4.0087  -43.4695 C   0  0  0  0  0  0  0  0  0  0  0  0
  -36.6793    5.2476  -42.6202 C   0  0  0  0  0  0  0  0  0  0  0  0
  -35.2462    5.1675  -42.0870 C   0  0  0  0  0  0  0  0  0  0  0  0
  -34.2770    5.0496  -43.2665 C   0  0  0  0  0  0  0  0  0  0  0  0
  -34.6396    3.8164  -44.0970 C   0  0  0  0  0  0  0  0  0  0  0  0
  -33.6859    3.7056  -45.2884 C   0  0  0  0  0  0  0  0  0  0  0  0
  -36.0192    3.9414  -44.5845 N   0  0  0  0  0  0  0  0  0  0  0  0
  -36.3524    2.8537  -45.4901 N   0  0  0  0  0  0  0  0  0  0  0  0
  -36.6666    3.4416  -47.0647 X   0  0  0  0  0  0  0  0  0  0  0  0
  1  2  1  0  0  0  0
  2  3  1  0  0  0  0
  2  8  1  0  0  0  0
  3  4  1  0  0  0  0
  4  5  1  0  0  0  0
  5  6  1  0  0  0  0
  6  7  1  0  0  0  0
  6  8  1  0  0  0  0
  8  9  1  0  0  0  0
  9 10  1  0  0  0  0
M  END
> <Index>
5

> <PropertyFieldDistance>
nan

$$$$
57673
BBcorina  12272117083D 1   1.00000     0.00000 
CORINA 4.3.0 0026  30.10.2019
  8  8  0  0  0  0  0  0  0  0999 V2000
  -35.8618    3.5279  -43.9943 N   0  0  0  0  0  0  0  0  0  0  0  0
  -37.0586    4.3656  -43.7698 C   0  0  0  0  0  0  0  0  0  0  0  0
  -37.0491    5.0293  -42.4709 C   0  0  0  0  0  0  0  0  0  0  0  0
  -35.8431    5.9846  -42.3292 C   0  0  0  0  0  0  0  0  0  0  0  0
  -34.6086    5.1708  -42.0507 C   0  0  0  0  0  0  0  0  0  0  0  0
  -33.8382    4.7854  -43.3306 C   0  0  0  0  0  0  0  0  0  0  0  0
  -34.7795    4.3554  -44.4721 C   0  0  0  0  0  0  0  0  0  0  0  0
  -36.1968    2.2633  -45.0955 X   0  0  0  0  0  0  0  0  0  0  0  0
  1  2  1  0  0  0  0
  1  7  1  0  0  0  0
  1  8  1  0  0  0  0
  2  3  1  0  0  0  0
  3  4  1  0  0  0  0
  4  5  1  0  0  0  0
  5  6  1  0  0  0  0
  6  7  1  0  0  0  0
M  END
> <Index>
20

> <PropertyFieldDistance>
nan

$$$$
57674
BBcorina  12272117083D 1   1.00000     0.00000 
CORINA 4.3.0 0026  30.10.2019
  8  8  0  0  0  0  0  0  0  0999 V2000
  -36.3611    2.4252  -45.0196 C   0  0  0  0  0  0  0  0  0  0  0  0
  -35.9529    3.3097  -43.9201 N   0  0  0  0  0  0  0  0  0  0  0  0
  -37.0212    4.2620  -43.5860 C   0  0  0  0  0  0  0  0  0  0  0  0
  -36.5888    5.1099  -42.3875 C   0  0  0  0  0  0  0  0  0  0  0  0
  -35.3417    5.8153  -42.7143 N   0  0  0  0  0  0  0  0  0  0  0  0
  -34.2734    4.8632  -43.0484 C   0  0  0  0  0  0  0  0  0  0  0  0
  -34.7059    4.0152  -44.2470 C   0  0  0  0  0  0  0  0  0  0  0  0
  -34.8667    6.8451  -41.4345 X   0  0  0  0  0  0  0  0  0  0  0  0
  1  2  1  0  0  0  0
  2  3  1  0  0  0  0
  2  7  1  0  0  0  0
  3  4  1  0  0  0  0
  4  5  1  0  0  0  0
  5  6  1  0  0  0  0
  5  8  1  0  0  0  0
  6  7  1  0  0  0  0
M  END
> <Index>
21

> <PropertyFieldDistance>
nan

$$$$
57679
BBcorina  12272117083D 1   1.00000     0.00000 
CORINA 4.3.0 0026  30.10.2019
 11 12  0  0  0  0  0  0  0  0999 V2000
  -35.9638    3.4666  -44.1591 N   0  0  0  0  0  0  0  0  0  0  0  0
  -36.9739    4.4883  -43.8405 C   0  0  0  0  0  0  0  0  0  0  0  0
  -36.6937    5.0268  -42.4372 C   0  0  0  0  0  0  0  0  0  0  0  0
  -35.2447    5.4241  -42.3184 C   0  0  0  0  0  0  0  0  0  0  0  0
  -34.8678    6.2437  -41.2659 C   0  0  0  0  0  0  0  0  0  0  0  0
  -33.5506    6.6314  -41.1206 C   0  0  0  0  0  0  0  0  0  0  0  0
  -32.6008    6.1910  -42.0230 C   0  0  0  0  0  0  0  0  0  0  0  0
  -32.9745    5.3718  -43.0695 C   0  0  0  0  0  0  0  0  0  0  0  0
  -34.2981    4.9863  -43.2204 C   0  0  0  0  0  0  0  0  0  0  0  0
  -34.6578    4.0955  -44.3805 C   0  0  0  0  0  0  0  0  0  0  0  0
  -35.8746    2.2872  -42.9242 X   0  0  0  0  0  0  0  0  0  0  0  0
  1  2  1  0  0  0  0
  1 10  1  0  0  0  0
  1 11  1  0  0  0  0
  2  3  1  0  0  0  0
  3  4  1  0  0  0  0
  4  5  2  0  0  0  0
  4  9  1  0  0  0  0
  5  6  1  0  0  0  0
  6  7  2  0  0  0  0
  7  8  1  0  0  0  0
  8  9  2  0  0  0  0
  9 10  1  0  0  0  0
M  END
> <Index>
25

> <PropertyFieldDistance>
nan

$$$$
57684
BBcorina  12272117083D 1   1.00000     0.00000 
CORINA 4.3.0 0026  30.10.2019
  9  9  0  0  0  0  0  0  0  0999 V2000
  -37.5649    5.3169  -41.4216 C   0  0  0  0  0  0  0  0  0  0  0  0
  -36.6293    5.2502  -42.6304 C   0  0  0  0  0  0  0  0  0  0  0  0
  -36.9724    4.0211  -43.4763 C   0  0  0  0  0  0  0  0  0  0  0  0
  -36.0216    3.9203  -44.5930 N   0  0  0  0  0  0  0  0  0  0  0  0
  -34.6419    3.8204  -44.0951 C   0  0  0  0  0  0  0  0  0  0  0  0
  -34.3222    5.0515  -43.2429 C   0  0  0  0  0  0  0  0  0  0  0  0
  -32.9157    4.9154  -42.6561 C   0  0  0  0  0  0  0  0  0  0  0  0
  -35.2752    5.1506  -42.1812 O   0  0  0  0  0  0  0  0  0  0  0  0
  -36.4046    2.5973  -45.6065 X   0  0  0  0  0  0  0  0  0  0  0  0
  1  2  1  0  0  0  0
  2  3  1  0  0  0  0
  2  8  1  0  0  0  0
  3  4  1  0  0  0  0
  4  5  1  0  0  0  0
  4  9  1  0  0  0  0
  5  6  1  0  0  0  0
  6  7  1  0  0  0  0
  6  8  1  0  0  0  0
M  END
> <Index>
30

> <PropertyFieldDistance>
nan

$$$$
57693
BBcorina  12272117083D 1   1.00000     0.00000 
CORINA 4.3.0 0026  30.10.2019
  9  9  0  0  0  0  0  0  0  0999 V2000
  -35.5665    1.7023  -45.7226 C   0  0  0  0  0  0  0  0  0  0  0  0
  -36.6764    2.5459  -45.0923 C   0  0  0  0  0  0  0  0  0  0  0  0
  -36.1212    3.3384  -43.9870 N   0  0  0  0  0  0  0  0  0  0  0  0
  -37.0937    4.3323  -43.5114 C   0  0  0  0  0  0  0  0  0  0  0  0
  -36.5085    5.0810  -42.3116 C   0  0  0  0  0  0  0  0  0  0  0  0
  -35.2497    5.7277  -42.7076 N   0  0  0  0  0  0  0  0  0  0  0  0
  -34.2773    4.7339  -43.1833 C   0  0  0  0  0  0  0  0  0  0  0  0
  -34.8625    3.9851  -44.3830 C   0  0  0  0  0  0  0  0  0  0  0  0
  -34.6035    6.6503  -41.4209 X   0  0  0  0  0  0  0  0  0  0  0  0
  1  2  1  0  0  0  0
  2  3  1  0  0  0  0
  3  4  1  0  0  0  0
  3  8  1  0  0  0  0
  4  5  1  0  0  0  0
  5  6  1  0  0  0  0
  6  7  1  0  0  0  0
  6  9  1  0  0  0  0
  7  8  1  0  0  0  0
M  END
> <Index>
35

> <PropertyFieldDistance>
nan

$$$$
57697
BBcorina  12272117083D 1   1.00000     0.00000 
CORINA 4.3.0 0026  30.10.2019
  6  6  0  0  0  0  0  0  0  0999 V2000
  -36.0199    3.7159  -44.5571 N   0  0  0  0  0  0  0  0  0  0  0  0
  -37.0825    4.3543  -43.7587 C   0  0  0  0  0  0  0  0  0  0  0  0
  -36.4170    4.9364  -42.4940 C   0  0  0  0  0  0  0  0  0  0  0  0
  -34.9334    5.0924  -42.9200 C   0  0  0  0  0  0  0  0  0  0  0  0
  -34.7384    3.8564  -43.8332 C   0  0  0  0  0  0  0  0  0  0  0  0
  -36.3798    2.0705  -44.8522 X   0  0  0  0  0  0  0  0  0  0  0  0
  1  2  1  0  0  0  0
  1  5  1  0  0  0  0
  1  6  1  0  0  0  0
  2  3  1  0  0  0  0
  3  4  1  0  0  0  0
  4  5  1  0  0  0  0
M  END
> <Index>
38

> <PropertyFieldDistance>
nan

$$$$
294272
BBcorina  12272117083D 1   1.00000     0.00000 
CORINA 4.3.0 0026  30.10.2019
  9  9  0  0  0  0  0  0  0  0999 V2000
  -36.8599    5.3906  -45.1002 C   0  0  0  0  0  0  0  0  0  0  0  0
  -36.8400    3.9217  -45.1083 N   0  0  0  0  0  0  0  0  0  0  0  0
  -36.1359    3.3983  -43.9301 C   0  0  0  0  0  0  0  0  0  0  0  0
  -36.2433    1.8722  -43.9080 C   0  0  0  0  0  0  0  0  0  0  0  0
  -35.5099    1.3271  -42.6809 C   0  0  0  0  0  0  0  0  0  0  0  0
  -34.0364    1.7338  -42.7449 C   0  0  0  0  0  0  0  0  0  0  0  0
  -33.9290    3.2599  -42.7669 C   0  0  0  0  0  0  0  0  0  0  0  0
  -34.6624    3.8050  -43.9941 C   0  0  0  0  0  0  0  0  0  0  0  0
  -38.4252    3.2879  -45.2066 X   0  0  0  0  0  0  0  0  0  0  0  0
  1  2  1  0  0  0  0
  2  3  1  0  0  0  0
  2  9  1  0  0  0  0
  3  4  1  0  0  0  0
  3  8  1  0  0  0  0
  4  5  1  0  0  0  0
  5  6  1  0  0  0  0
  6  7  1  0  0  0  0
  7  8  1  0  0  0  0
M  END
> <Index>
40

> <PropertyFieldDistance>
nan

$$$$
57699
BBcorina  12272117083D 1   1.00000     0.00000 
CORINA 4.3.0 0026  30.10.2019
  8  8  0  0  0  0  0  0  0  0999 V2000
  -34.8941    0.7490  -43.8179 N   0  0  0  0  0  0  0  0  0  0  0  0
  -34.9140    2.2179  -43.8098 C   0  0  0  0  0  0  0  0  0  0  0  0
  -35.6540    2.7247  -45.0493 C   0  0  0  0  0  0  0  0  0  0  0  0
  -35.6748    4.2545  -45.0409 C   0  0  0  0  0  0  0  0  0  0  0  0
  -36.3909    4.7480  -43.7821 C   0  0  0  0  0  0  0  0  0  0  0  0
  -35.6509    4.2411  -42.5426 C   0  0  0  0  0  0  0  0  0  0  0  0
  -35.6302    2.7113  -42.5510 C   0  0  0  0  0  0  0  0  0  0  0  0
  -33.4958    0.1508  -43.0362 X   0  0  0  0  0  0  0  0  0  0  0  0
  1  2  1  0  0  0  0
  1  8  1  0  0  0  0
  2  3  1  0  0  0  0
  2  7  1  0  0  0  0
  3  4  1  0  0  0  0
  4  5  1  0  0  0  0
  5  6  1  0  0  0  0
  6  7  1  0  0  0  0
M  END
> <Index>
41

> <PropertyFieldDistance>
nan

$$$$
57702
BBcorina  12272117083D 1   1.00000     0.00000 
CORINA 4.3.0 0026  30.10.2019
  8  8  0  0  0  0  0  0  0  0999 V2000
  -36.0172    3.5927  -44.4913 N   0  0  0  0  0  0  0  0  0  0  0  0
  -36.3933    2.1751  -44.5753 C   0  0  0  0  0  0  0  0  0  0  0  0
  -36.1059    1.6538  -45.9846 C   0  0  0  0  0  0  0  0  0  0  0  0
  -36.6039    0.1985  -46.1165 C   0  0  0  0  0  0  0  0  0  0  0  0
  -35.4836   -0.4573  -46.9691 C   0  0  0  0  0  0  0  0  0  0  0  0
  -34.2380    0.3093  -46.4576 C   0  0  0  0  0  0  0  0  0  0  0  0
  -34.6935    1.6513  -46.2232 O   0  0  0  0  0  0  0  0  0  0  0  0
  -36.3230    4.2163  -42.9287 X   0  0  0  0  0  0  0  0  0  0  0  0
  1  2  1  0  0  0  0
  1  8  1  0  0  0  0
  2  3  1  0  0  0  0
  3  4  1  0  0  0  0
  3  7  1  0  0  0  0
  4  5  1  0  0  0  0
  5  6  1  0  0  0  0
  6  7  1  0  0  0  0
M  END
> <Index>
43

> <PropertyFieldDistance>
nan

$$$$
803640
BBcorina  12272117083D 1   1.00000     0.00000 
CORINA 4.3.0 0026  30.10.2019
 12 13  0  0  0  0  0  0  0  0999 V2000
  -33.1285    5.8663  -44.2340 C   0  0  0  0  0  0  0  0  0  0  0  0
  -34.3840    5.2322  -43.6167 C   0  0  0  0  0  0  0  0  0  0  0  0
  -35.6905    5.9232  -44.0921 C   0  0  0  0  0  0  0  0  0  0  0  0
  -36.7042    4.7867  -43.8006 C   0  0  0  0  0  0  0  0  0  0  0  0
  -36.9120    4.7164  -42.2950 C   0  0  0  0  0  0  0  0  0  0  0  0
  -35.6723    4.8325  -41.4363 C   0  0  0  0  0  0  0  0  0  0  0  0
  -35.4189    3.4789  -40.7416 C   0  0  0  0  0  0  0  0  0  0  0  0
  -35.9927    5.8403  -40.3024 C   0  0  0  0  0  0  0  0  0  0  0  0
  -34.3859    5.2898  -42.0905 C   0  0  0  0  0  0  0  0  0  0  0  0
  -34.5722    3.7602  -44.0505 C   0  0  0  0  0  0  0  0  0  0  0  0
  -36.0149    3.5681  -44.2748 N   0  0  0  0  0  0  0  0  0  0  0  0
  -36.5994    2.1540  -43.5245 X   0  0  0  0  0  0  0  0  0  0  0  0
  1  2  1  0  0  0  0
  2  3  1  0  0  0  0
  2  9  1  0  0  0  0
  2 10  1  0  0  0  0
  3  4  1  0  0  0  0
  4  5  1  0  0  0  0
  4 11  1  0  0  0  0
  5  6  1  0  0  0  0
  6  7  1  0  0  0  0
  6  8  1  0  0  0  0
  6  9  1  0  0  0  0
 10 11  1  0  0  0  0
 11 12  1  0  0  0  0
M  END
> <Index>
45

> <PropertyFieldDistance>
nan

$$$$
57740
BBcorina  12272117083D 1   1.00000     0.00000 
CORINA 4.3.0 0026  30.10.2019
  8  8  0  0  0  0  0  0  0  0999 V2000
  -32.9630    5.6821  -43.4117 C   0  0  0  0  0  0  0  0  0  0  0  0
  -34.2558    4.9088  -43.1443 C   0  0  0  0  0  0  0  0  0  0  0  0
  -35.3534    5.8832  -42.7080 C   0  0  0  0  0  0  0  0  0  0  0  0
  -36.6587    5.1099  -42.5008 C   0  0  0  0  0  0  0  0  0  0  0  0
  -37.0290    4.3869  -43.7977 C   0  0  0  0  0  0  0  0  0  0  0  0
  -35.9480    3.4665  -44.1722 N   0  0  0  0  0  0  0  0  0  0  0  0
  -34.6958    4.1916  -44.4227 C   0  0  0  0  0  0  0  0  0  0  0  0
  -36.3902    2.5211  -45.5268 X   0  0  0  0  0  0  0  0  0  0  0  0
  1  2  1  0  0  0  0
  2  3  1  0  0  0  0
  2  7  1  0  0  0  0
  3  4  1  0  0  0  0
  4  5  1  0  0  0  0
  5  6  1  0  0  0  0
  6  7  1  0  0  0  0
  6  8  1  0  0  0  0
M  END
> <Index>
82

> <PropertyFieldDistance>
nan

$$$$
57743
BBcorina  12272117083D 1   1.00000     0.00000 
CORINA 4.3.0 0026  30.10.2019
  7  7  0  0  0  0  0  0  0  0999 V2000
  -35.9552    3.4605  -44.1931 N   0  0  0  0  0  0  0  0  0  0  0  0
  -37.0258    4.3874  -43.7947 C   0  0  0  0  0  0  0  0  0  0  0  0
  -36.6100    5.1169  -42.5145 C   0  0  0  0  0  0  0  0  0  0  0  0
  -35.3667    5.7881  -42.7357 O   0  0  0  0  0  0  0  0  0  0  0  0
  -34.3024    4.9152  -43.1244 C   0  0  0  0  0  0  0  0  0  0  0  0
  -34.6939    4.1835  -44.4110 C   0  0  0  0  0  0  0  0  0  0  0  0
  -36.4007    2.5721  -45.5847 X   0  0  0  0  0  0  0  0  0  0  0  0
  1  2  1  0  0  0  0
  1  6  1  0  0  0  0
  1  7  1  0  0  0  0
  2  3  1  0  0  0  0
  3  4  1  0  0  0  0
  4  5  1  0  0  0  0
  5  6  1  0  0  0  0
M  END
> <Index>
87

> <PropertyFieldDistance>
nan

$$$$
57746
BBcorina  12272117083D 1   1.00000     0.00000 
CORINA 4.3.0 0026  30.10.2019
 10 10  0  0  0  0  0  0  0  0999 V2000
  -35.5689    1.5954  -45.5616 C   0  0  0  0  0  0  0  0  0  0  0  0
  -36.5687    2.4539  -44.8304 C   0  0  0  0  0  0  0  0  0  0  0  0
  -37.7064    2.0628  -44.6769 O   0  0  0  0  0  0  0  0  0  0  0  0
  -36.1984    3.6563  -44.3471 N   0  0  0  0  0  0  0  0  0  0  0  0
  -37.1582    4.5100  -43.6306 C   0  0  0  0  0  0  0  0  0  0  0  0
  -36.5301    4.9380  -42.2999 C   0  0  0  0  0  0  0  0  0  0  0  0
  -35.2213    5.5540  -42.5557 N   0  0  0  0  0  0  0  0  0  0  0  0
  -34.2878    4.5919  -43.1565 C   0  0  0  0  0  0  0  0  0  0  0  0
  -34.8224    4.1471  -44.5170 C   0  0  0  0  0  0  0  0  0  0  0  0
  -34.5707    6.2272  -41.1247 X   0  0  0  0  0  0  0  0  0  0  0  0
  1  2  1  0  0  0  0
  2  3  2  0  0  0  0
  2  4  1  0  0  0  0
  4  5  1  0  0  0  0
  4  9  1  0  0  0  0
  5  6  1  0  0  0  0
  6  7  1  0  0  0  0
  7  8  1  0  0  0  0
  7 10  1  0  0  0  0
  8  9  1  0  0  0  0
M  END
> <Index>
91

> <PropertyFieldDistance>
nan

$$$$
57747
BBcorina  12272117083D 1   1.00000     0.00000 
CORINA 4.3.0 0026  30.10.2019
 14 15  0  0  0  0  0  0  0  0999 V2000
  -37.4929   -0.0004  -48.0883 O   0  0  0  0  0  0  0  0  0  0  0  0
  -37.1148    0.8131  -47.0661 C   0  0  0  0  0  0  0  0  0  0  0  0
  -35.8592    0.6701  -46.4945 C   0  0  0  0  0  0  0  0  0  0  0  0
  -35.4746    1.4955  -45.4561 C   0  0  0  0  0  0  0  0  0  0  0  0
  -36.3454    2.4691  -44.9847 C   0  0  0  0  0  0  0  0  0  0  0  0
  -37.6042    2.6081  -45.5541 C   0  0  0  0  0  0  0  0  0  0  0  0
  -37.9850    1.7856  -46.5962 C   0  0  0  0  0  0  0  0  0  0  0  0
  -35.9565    3.3060  -43.9326 N   0  0  0  0  0  0  0  0  0  0  0  0
  -37.0240    4.2577  -43.5947 C   0  0  0  0  0  0  0  0  0  0  0  0
  -36.5917    5.0990  -42.3914 C   0  0  0  0  0  0  0  0  0  0  0  0
  -35.3433    5.8046  -42.7134 N   0  0  0  0  0  0  0  0  0  0  0  0
  -34.2759    4.8527  -43.0514 C   0  0  0  0  0  0  0  0  0  0  0  0
  -34.7082    4.0114  -44.2547 C   0  0  0  0  0  0  0  0  0  0  0  0
  -34.8682    6.8271  -41.4279 X   0  0  0  0  0  0  0  0  0  0  0  0
  1  2  1  0  0  0  0
  2  3  2  0  0  0  0
  2  7  1  0  0  0  0
  3  4  1  0  0  0  0
  4  5  2  0  0  0  0
  5  6  1  0  0  0  0
  5  8  1  0  0  0  0
  6  7  2  0  0  0  0
  8  9  1  0  0  0  0
  8 13  1  0  0  0  0
  9 10  1  0  0  0  0
 10 11  1  0  0  0  0
 11 12  1  0  0  0  0
 11 14  1  0  0  0  0
 12 13  1  0  0  0  0
M  END
> <Index>
92

> <PropertyFieldDistance>
nan

$$$$
57749
BBcorina  12272117083D 1   1.00000     0.00000 
CORINA 4.3.0 0026  30.10.2019
 11 11  0  0  0  0  0  0  0  0999 V2000
  -36.7234    1.1588  -48.3524 N   0  0  0  0  0  0  0  0  0  0  0  0
  -36.5275    0.8997  -46.9198 C   0  0  0  0  0  0  0  0  0  0  0  0
  -36.3430    2.2273  -46.1821 C   0  0  0  0  0  0  0  0  0  0  0  0
  -36.1389    1.9574  -44.6899 C   0  0  0  0  0  0  0  0  0  0  0  0
  -35.9623    3.2285  -43.9834 N   0  0  0  0  0  0  0  0  0  0  0  0
  -37.0595    4.0155  -43.4079 C   0  0  0  0  0  0  0  0  0  0  0  0
  -36.4778    5.4273  -43.1734 C   0  0  0  0  0  0  0  0  0  0  0  0
  -34.9683    5.1259  -43.0262 C   0  0  0  0  0  0  0  0  0  0  0  0
  -34.7743    3.8273  -43.7776 C   0  0  0  0  0  0  0  0  0  0  0  0
  -33.7038    3.3890  -44.1424 O   0  0  0  0  0  0  0  0  0  0  0  0
  -36.9339   -0.3019  -49.2163 X   0  0  0  0  0  0  0  0  0  0  0  0
  1  2  1  0  0  0  0
  1 11  1  0  0  0  0
  2  3  1  0  0  0  0
  3  4  1  0  0  0  0
  4  5  1  0  0  0  0
  5  6  1  0  0  0  0
  5  9  1  0  0  0  0
  6  7  1  0  0  0  0
  7  8  1  0  0  0  0
  8  9  1  0  0  0  0
  9 10  2  0  0  0  0
M  END
> <Index>
94

> <PropertyFieldDistance>
nan

$$$$
57763
BBcorina  12272117083D 1   1.00000     0.00000 
CORINA 4.3.0 0026  30.10.2019
 14 15  0  0  0  0  0  0  0  0999 V2000
  -36.0708    0.5594  -43.5990 F   0  0  0  0  0  0  0  0  0  0  0  0
  -36.3965    1.0921  -44.7970 C   0  0  0  0  0  0  0  0  0  0  0  0
  -36.7811    0.2692  -45.8390 C   0  0  0  0  0  0  0  0  0  0  0  0
  -37.1138    0.8148  -47.0660 C   0  0  0  0  0  0  0  0  0  0  0  0
  -37.0634    2.1832  -47.2542 C   0  0  0  0  0  0  0  0  0  0  0  0
  -36.6858    3.0125  -46.2153 C   0  0  0  0  0  0  0  0  0  0  0  0
  -36.3452    2.4697  -44.9842 C   0  0  0  0  0  0  0  0  0  0  0  0
  -35.9566    3.3059  -43.9327 N   0  0  0  0  0  0  0  0  0  0  0  0
  -37.0240    4.2577  -43.5948 C   0  0  0  0  0  0  0  0  0  0  0  0
  -36.5917    5.0988  -42.3915 C   0  0  0  0  0  0  0  0  0  0  0  0
  -35.3434    5.8044  -42.7134 N   0  0  0  0  0  0  0  0  0  0  0  0
  -34.2759    4.8526  -43.0514 C   0  0  0  0  0  0  0  0  0  0  0  0
  -34.7083    4.0114  -44.2548 C   0  0  0  0  0  0  0  0  0  0  0  0
  -34.8682    6.8269  -41.4278 X   0  0  0  0  0  0  0  0  0  0  0  0
  1  2  1  0  0  0  0
  2  3  2  0  0  0  0
  2  7  1  0  0  0  0
  3  4  1  0  0  0  0
  4  5  2  0  0  0  0
  5  6  1  0  0  0  0
  6  7  2  0  0  0  0
  7  8  1  0  0  0  0
  8  9  1  0  0  0  0
  8 13  1  0  0  0  0
  9 10  1  0  0  0  0
 10 11  1  0  0  0  0
 11 12  1  0  0  0  0
 11 14  1  0  0  0  0
 12 13  1  0  0  0  0
M  END
> <Index>
103

> <PropertyFieldDistance>
nan

$$$$
57766
BBcorina  12272117083D 1   1.00000     0.00000 
CORINA 4.3.0 0026  30.10.2019
  9  9  0  0  0  0  0  0  0  0999 V2000
  -32.8467    4.9093  -42.7413 C   0  0  0  0  0  0  0  0  0  0  0  0
  -34.2769    5.0495  -43.2665 C   0  0  0  0  0  0  0  0  0  0  0  0
  -35.2462    5.1676  -42.0870 C   0  0  0  0  0  0  0  0  0  0  0  0
  -36.6794    5.2476  -42.6202 C   0  0  0  0  0  0  0  0  0  0  0  0
  -37.6587    5.3054  -41.4461 C   0  0  0  0  0  0  0  0  0  0  0  0
  -36.9723    4.0087  -43.4694 C   0  0  0  0  0  0  0  0  0  0  0  0
  -36.0191    3.9414  -44.5845 N   0  0  0  0  0  0  0  0  0  0  0  0
  -34.6396    3.8164  -44.0970 C   0  0  0  0  0  0  0  0  0  0  0  0
  -36.4110    2.6621  -45.6494 X   0  0  0  0  0  0  0  0  0  0  0  0
  1  2  1  0  0  0  0
  2  3  1  0  0  0  0
  2  8  1  0  0  0  0
  3  4  1  0  0  0  0
  4  5  1  0  0  0  0
  4  6  1  0  0  0  0
  6  7  1  0  0  0  0
  7  8  1  0  0  0  0
  7  9  1  0  0  0  0
M  END
> <Index>
106

> <PropertyFieldDistance>
nan

$$$$
57775
BBcorina  12272117083D 1   1.00000     0.00000 
CORINA 4.3.0 0026  30.10.2019
 12 12  0  0  0  0  0  0  0  0999 V2000
  -36.2288    8.1193  -38.3025 C   0  0  0  0  0  0  0  0  0  0  0  0
  -35.2968    7.9349  -39.5018 C   0  0  0  0  0  0  0  0  0  0  0  0
  -35.6571    6.7211  -40.2126 O   0  0  0  0  0  0  0  0  0  0  0  0
  -34.9307    6.4122  -41.2983 C   0  0  0  0  0  0  0  0  0  0  0  0
  -34.0238    7.1323  -41.6431 O   0  0  0  0  0  0  0  0  0  0  0  0
  -35.2462    5.1675  -42.0868 C   0  0  0  0  0  0  0  0  0  0  0  0
  -36.6793    5.2476  -42.6203 C   0  0  0  0  0  0  0  0  0  0  0  0
  -36.9723    4.0086  -43.4694 C   0  0  0  0  0  0  0  0  0  0  0  0
  -36.0191    3.9414  -44.5845 N   0  0  0  0  0  0  0  0  0  0  0  0
  -34.6396    3.8164  -44.0971 C   0  0  0  0  0  0  0  0  0  0  0  0
  -34.2769    5.0496  -43.2664 C   0  0  0  0  0  0  0  0  0  0  0  0
  -36.4111    2.6624  -45.6495 X   0  0  0  0  0  0  0  0  0  0  0  0
  1  2  1  0  0  0  0
  2  3  1  0  0  0  0
  3  4  1  0  0  0  0
  4  5  2  0  0  0  0
  4  6  1  0  0  0  0
  6  7  1  0  0  0  0
  6 11  1  0  0  0  0
  7  8  1  0  0  0  0
  8  9  1  0  0  0  0
  9 10  1  0  0  0  0
  9 12  1  0  0  0  0
 10 11  1  0  0  0  0
M  END
> <Index>
115

> <PropertyFieldDistance>
nan

$$$$
57790
BBcorina  12272117083D 1   1.00000     0.00000 
CORINA 4.3.0 0026  30.10.2019
 11 11  0  0  0  0  0  0  0  0999 V2000
  -38.0750   -0.3580  -46.2831 N   0  0  0  0  0  0  0  0  0  0  0  0
  -37.0601    0.6836  -46.4905 C   0  0  0  0  0  0  0  0  0  0  0  0
  -36.9083    1.5097  -45.2116 C   0  0  0  0  0  0  0  0  0  0  0  0
  -35.8513    2.5946  -45.4276 C   0  0  0  0  0  0  0  0  0  0  0  0
  -35.7056    3.3877  -44.1998 N   0  0  0  0  0  0  0  0  0  0  0  0
  -36.9305    4.1521  -43.9179 C   0  0  0  0  0  0  0  0  0  0  0  0
  -36.7563    4.9154  -42.6022 C   0  0  0  0  0  0  0  0  0  0  0  0
  -35.6022    5.7551  -42.6923 O   0  0  0  0  0  0  0  0  0  0  0  0
  -34.3921    5.0431  -42.9652 C   0  0  0  0  0  0  0  0  0  0  0  0
  -34.5413    4.2811  -44.2847 C   0  0  0  0  0  0  0  0  0  0  0  0
  -38.2763   -1.3065  -47.6915 X   0  0  0  0  0  0  0  0  0  0  0  0
  1  2  1  0  0  0  0
  1 11  1  0  0  0  0
  2  3  1  0  0  0  0
  3  4  1  0  0  0  0
  4  5  1  0  0  0  0
  5  6  1  0  0  0  0
  5 10  1  0  0  0  0
  6  7  1  0  0  0  0
  7  8  1  0  0  0  0
  8  9  1  0  0  0  0
  9 10  1  0  0  0  0
M  END
> <Index>
133

> <PropertyFieldDistance>
nan

$$$$
57805
BBcorina  12272117083D 1   1.00000     0.00000 
CORINA 4.3.0 0026  30.10.2019
  9  9  0  0  0  0  0  0  0  0999 V2000
  -36.0173    3.5927  -44.4913 N   0  0  0  0  0  0  0  0  0  0  0  0
  -36.3933    2.1751  -44.5752 C   0  0  0  0  0  0  0  0  0  0  0  0
  -36.1059    1.6538  -45.9847 C   0  0  0  0  0  0  0  0  0  0  0  0
  -36.6117    0.2152  -46.1093 C   0  0  0  0  0  0  0  0  0  0  0  0
  -36.3242   -0.3061  -47.5188 C   0  0  0  0  0  0  0  0  0  0  0  0
  -34.8167   -0.2713  -47.7778 C   0  0  0  0  0  0  0  0  0  0  0  0
  -34.3109    1.1673  -47.6531 C   0  0  0  0  0  0  0  0  0  0  0  0
  -34.5984    1.6886  -46.2437 C   0  0  0  0  0  0  0  0  0  0  0  0
  -36.3231    4.2163  -42.9287 X   0  0  0  0  0  0  0  0  0  0  0  0
  1  2  1  0  0  0  0
  1  9  1  0  0  0  0
  2  3  1  0  0  0  0
  3  4  1  0  0  0  0
  3  8  1  0  0  0  0
  4  5  1  0  0  0  0
  5  6  1  0  0  0  0
  6  7  1  0  0  0  0
  7  8  1  0  0  0  0
M  END
> <Index>
147

> <PropertyFieldDistance>
nan

$$$$
294280
BBcorina  12272117083D 1   1.00000     0.00000 
CORINA 4.3.0 0026  30.10.2019
 12 12  0  0  0  0  0  0  0  0999 V2000
  -38.1688    3.3446  -43.2701 C   0  0  0  0  0  0  0  0  0  0  0  0
  -37.0611    4.3192  -43.7288 C   0  0  0  0  0  0  0  0  0  0  0  0
  -37.6749    5.2330  -44.7965 C   0  0  0  0  0  0  0  0  0  0  0  0
  -36.6524    5.1533  -42.5174 C   0  0  0  0  0  0  0  0  0  0  0  0
  -35.3746    5.9367  -42.8163 C   0  0  0  0  0  0  0  0  0  0  0  0
  -34.2619    4.9429  -43.1486 C   0  0  0  0  0  0  0  0  0  0  0  0
  -34.6422    4.1092  -44.3698 C   0  0  0  0  0  0  0  0  0  0  0  0
  -33.6259    2.9504  -44.4768 C   0  0  0  0  0  0  0  0  0  0  0  0
  -34.4952    4.9597  -45.6371 C   0  0  0  0  0  0  0  0  0  0  0  0
  -35.9696    3.5390  -44.2731 N   0  0  0  0  0  0  0  0  0  0  0  0
  -34.9917    6.7129  -41.6252 N   0  0  0  0  0  0  0  0  0  0  0  0
  -34.7085    5.6845  -40.2887 X   0  0  0  0  0  0  0  0  0  0  0  0
  1  2  1  0  0  0  0
  2  3  1  0  0  0  0
  2  4  1  0  0  0  0
  2 10  1  0  0  0  0
  4  5  1  0  0  0  0
  5  6  1  0  0  0  0
  5 11  1  0  0  0  0
  6  7  1  0  0  0  0
  7  8  1  0  0  0  0
  7  9  1  0  0  0  0
  7 10  1  0  0  0  0
 11 12  1  0  0  0  0
M  END
> <Index>
148

> <PropertyFieldDistance>
nan

$$$$
57872
BBcorina  12272117083D 1   1.00000     0.00000 
CORINA 4.3.0 0026  30.10.2019
 14 15  0  0  0  0  0  0  0  0999 V2000
  -37.4288   -0.5669  -47.6113 N   0  0  0  0  0  0  0  0  0  0  0  0
  -37.0569    0.4137  -46.6837 C   0  0  0  0  0  0  0  0  0  0  0  0
  -35.7873    0.3918  -46.1218 C   0  0  0  0  0  0  0  0  0  0  0  0
  -35.4203    1.3593  -45.2074 C   0  0  0  0  0  0  0  0  0  0  0  0
  -36.3209    2.3538  -44.8497 C   0  0  0  0  0  0  0  0  0  0  0  0
  -37.5902    2.3762  -45.4123 C   0  0  0  0  0  0  0  0  0  0  0  0
  -37.9557    1.4113  -46.3301 C   0  0  0  0  0  0  0  0  0  0  0  0
  -35.9490    3.3344  -43.9222 N   0  0  0  0  0  0  0  0  0  0  0  0
  -37.0461    4.2825  -43.6902 C   0  0  0  0  0  0  0  0  0  0  0  0
  -36.6583    5.2492  -42.5690 C   0  0  0  0  0  0  0  0  0  0  0  0
  -35.3851    6.0007  -42.9673 C   0  0  0  0  0  0  0  0  0  0  0  0
  -34.2717    4.9884  -43.2503 C   0  0  0  0  0  0  0  0  0  0  0  0
  -34.7287    4.0293  -44.3518 C   0  0  0  0  0  0  0  0  0  0  0  0
  -38.9923   -0.5401  -48.3033 X   0  0  0  0  0  0  0  0  0  0  0  0
  1  2  1  0  0  0  0
  1 14  1  0  0  0  0
  2  3  2  0  0  0  0
  2  7  1  0  0  0  0
  3  4  1  0  0  0  0
  4  5  2  0  0  0  0
  5  6  1  0  0  0  0
  5  8  1  0  0  0  0
  6  7  2  0  0  0  0
  8  9  1  0  0  0  0
  8 13  1  0  0  0  0
  9 10  1  0  0  0  0
 10 11  1  0  0  0  0
 11 12  1  0  0  0  0
 12 13  1  0  0  0  0
M  END
> <Index>
176

> <PropertyFieldDistance>
nan

$$$$
57888
BBcorina  12272117083D 1   1.00000     0.00000 
CORINA 4.3.0 0026  30.10.2019
 12 12  0  0  0  0  0  0  0  0999 V2000
  -34.3711   -0.5513  -46.0293 C   0  0  0  0  0  0  0  0  0  0  0  0
  -35.6176    0.1576  -45.4958 C   0  0  0  0  0  0  0  0  0  0  0  0
  -35.2743    1.5144  -45.1088 O   0  0  0  0  0  0  0  0  0  0  0  0
  -36.2667    2.2788  -44.6153 C   0  0  0  0  0  0  0  0  0  0  0  0
  -37.3889    1.8246  -44.5109 O   0  0  0  0  0  0  0  0  0  0  0  0
  -36.0166    3.5495  -44.2423 N   0  0  0  0  0  0  0  0  0  0  0  0
  -37.0874    4.4037  -43.7065 C   0  0  0  0  0  0  0  0  0  0  0  0
  -36.6071    5.0157  -42.3863 C   0  0  0  0  0  0  0  0  0  0  0  0
  -35.3220    5.6934  -42.6033 N   0  0  0  0  0  0  0  0  0  0  0  0
  -34.2808    4.7422  -43.0145 C   0  0  0  0  0  0  0  0  0  0  0  0
  -34.6644    4.1171  -44.3547 C   0  0  0  0  0  0  0  0  0  0  0  0
  -34.8436    6.5609  -41.2094 X   0  0  0  0  0  0  0  0  0  0  0  0
  1  2  1  0  0  0  0
  2  3  1  0  0  0  0
  3  4  1  0  0  0  0
  4  5  2  0  0  0  0
  4  6  1  0  0  0  0
  6  7  1  0  0  0  0
  6 11  1  0  0  0  0
  7  8  1  0  0  0  0
  8  9  1  0  0  0  0
  9 10  1  0  0  0  0
  9 12  1  0  0  0  0
 10 11  1  0  0  0  0
M  END
> <Index>
181

> <PropertyFieldDistance>
nan

$$$$
57890
BBcorina  12272117083D 1   1.00000     0.00000 
CORINA 4.3.0 0026  30.10.2019
 14 15  0  0  0  0  0  0  0  0999 V2000
  -35.2281    5.5646  -42.5747 N   0  0  0  0  0  0  0  0  0  0  0  0
  -36.6592    5.4299  -42.8779 C   0  0  0  0  0  0  0  0  0  0  0  0
  -37.0153    3.9441  -42.9956 C   0  0  0  0  0  0  0  0  0  0  0  0
  -36.1109    3.3231  -43.9752 N   0  0  0  0  0  0  0  0  0  0  0  0
  -34.6637    3.5297  -43.8148 C   0  0  0  0  0  0  0  0  0  0  0  0
  -34.4000    5.0319  -43.6648 C   0  0  0  0  0  0  0  0  0  0  0  0
  -36.5956    2.5839  -44.9926 C   0  0  0  0  0  0  0  0  0  0  0  0
  -37.7906    2.3681  -45.0727 O   0  0  0  0  0  0  0  0  0  0  0  0
  -35.6829    2.0394  -46.0032 C   0  0  0  0  0  0  0  0  0  0  0  0
  -36.0481    1.3930  -47.1491 C   0  0  0  0  0  0  0  0  0  0  0  0
  -34.8609    1.0491  -47.8144 C   0  0  0  0  0  0  0  0  0  0  0  0
  -33.8359    1.4883  -47.0512 C   0  0  0  0  0  0  0  0  0  0  0  0
  -34.3352    2.0844  -45.9607 O   0  0  0  0  0  0  0  0  0  0  0  0
  -34.8237    7.1913  -42.2369 X   0  0  0  0  0  0  0  0  0  0  0  0
  1  2  1  0  0  0  0
  1  6  1  0  0  0  0
  1 14  1  0  0  0  0
  2  3  1  0  0  0  0
  3  4  1  0  0  0  0
  4  5  1  0  0  0  0
  4  7  1  0  0  0  0
  5  6  1  0  0  0  0
  7  8  2  0  0  0  0
  7  9  1  0  0  0  0
  9 10  2  0  0  0  0
  9 13  1  0  0  0  0
 10 11  1  0  0  0  0
 11 12  2  0  0  0  0
 12 13  1  0  0  0  0
M  END
> <Index>
182

> <PropertyFieldDistance>
nan

$$$$
57903
BBcorina  12272117083D 1   1.00000     0.00000 
CORINA 4.3.0 0026  30.10.2019
 15 16  0  0  0  0  0  0  0  0999 V2000
  -34.6528    6.6056  -41.7403 N   0  0  0  0  0  0  0  0  0  0  0  0
  -35.2346    5.8725  -42.8725 C   0  0  0  0  0  0  0  0  0  0  0  0
  -36.5244    5.1793  -42.4246 C   0  0  0  0  0  0  0  0  0  0  0  0
  -37.0941    4.3693  -43.5915 C   0  0  0  0  0  0  0  0  0  0  0  0
  -36.1068    3.3727  -44.0255 N   0  0  0  0  0  0  0  0  0  0  0  0
  -36.6704    2.4856  -45.0517 C   0  0  0  0  0  0  0  0  0  0  0  0
  -35.5713    1.6435  -45.6464 C   0  0  0  0  0  0  0  0  0  0  0  0
  -35.2602    0.4180  -45.0876 C   0  0  0  0  0  0  0  0  0  0  0  0
  -34.2525   -0.3549  -45.6337 C   0  0  0  0  0  0  0  0  0  0  0  0
  -33.5560    0.0977  -46.7386 C   0  0  0  0  0  0  0  0  0  0  0  0
  -33.8662    1.3238  -47.2966 C   0  0  0  0  0  0  0  0  0  0  0  0
  -34.8744    2.0963  -46.7511 C   0  0  0  0  0  0  0  0  0  0  0  0
  -34.8772    4.0170  -44.5045 C   0  0  0  0  0  0  0  0  0  0  0  0
  -34.2413    4.8164  -43.3649 C   0  0  0  0  0  0  0  0  0  0  0  0
  -34.1849    5.5344  -40.4921 X   0  0  0  0  0  0  0  0  0  0  0  0
  1  2  1  0  0  0  0
  1 15  1  0  0  0  0
  2  3  1  0  0  0  0
  2 14  1  0  0  0  0
  3  4  1  0  0  0  0
  4  5  1  0  0  0  0
  5  6  1  0  0  0  0
  5 13  1  0  0  0  0
  6  7  1  0  0  0  0
  7  8  2  0  0  0  0
  7 12  1  0  0  0  0
  8  9  1  0  0  0  0
  9 10  2  0  0  0  0
 10 11  1  0  0  0  0
 11 12  2  0  0  0  0
 13 14  1  0  0  0  0
M  END
> <Index>
190

> <PropertyFieldDistance>
nan

$$$$
57910
BBcorina  12272117083D 1   1.00000     0.00000 
CORINA 4.3.0 0026  30.10.2019
  5  5  0  0  0  0  0  0  0  0999 V2000
  -35.0096    1.6853  -43.8295 N   0  0  0  0  0  0  0  0  0  0  0  0
  -35.0295    3.1542  -43.8214 C   0  0  0  0  0  0  0  0  0  0  0  0
  -36.1670    3.8494  -44.5722 C   0  0  0  0  0  0  0  0  0  0  0  0
  -36.1524    3.8412  -43.0416 C   0  0  0  0  0  0  0  0  0  0  0  0
  -33.4087    1.0936  -43.7250 X   0  0  0  0  0  0  0  0  0  0  0  0
  1  2  1  0  0  0  0
  1  5  1  0  0  0  0
  2  3  1  0  0  0  0
  2  4  1  0  0  0  0
  3  4  1  0  0  0  0
M  END
> <Index>
199

> <PropertyFieldDistance>
nan

$$$$
57926
BBcorina  12272117083D 1   1.00000     0.00000 
CORINA 4.3.0 0026  30.10.2019
 10 10  0  0  0  0  0  0  0  0999 V2000
  -35.7705    7.4516  -40.8411 N   0  0  0  0  0  0  0  0  0  0  0  0
  -34.9521    6.5487  -41.4168 C   0  0  0  0  0  0  0  0  0  0  0  0
  -33.8925    6.2718  -40.8957 O   0  0  0  0  0  0  0  0  0  0  0  0
  -35.3535    5.8833  -42.7079 C   0  0  0  0  0  0  0  0  0  0  0  0
  -36.6585    5.1099  -42.5008 C   0  0  0  0  0  0  0  0  0  0  0  0
  -37.0291    4.3869  -43.7977 C   0  0  0  0  0  0  0  0  0  0  0  0
  -35.9480    3.4664  -44.1723 N   0  0  0  0  0  0  0  0  0  0  0  0
  -34.6958    4.1916  -44.4226 C   0  0  0  0  0  0  0  0  0  0  0  0
  -34.2559    4.9088  -43.1442 C   0  0  0  0  0  0  0  0  0  0  0  0
  -36.3899    2.5211  -45.5270 X   0  0  0  0  0  0  0  0  0  0  0  0
  1  2  1  0  0  0  0
  2  3  2  0  0  0  0
  2  4  1  0  0  0  0
  4  5  1  0  0  0  0
  4  9  1  0  0  0  0
  5  6  1  0  0  0  0
  6  7  1  0  0  0  0
  7  8  1  0  0  0  0
  7 10  1  0  0  0  0
  8  9  1  0  0  0  0
M  END
> <Index>
210

> <PropertyFieldDistance>
nan

$$$$
57931
BBcorina  12272117083D 1   1.00000     0.00000 
CORINA 4.3.0 0026  30.10.2019
 10 10  0  0  0  0  0  0  0  0999 V2000
  -36.1404    0.7679  -46.7145 N   0  0  0  0  0  0  0  0  0  0  0  0
  -35.5716    1.6312  -45.6708 C   0  0  0  0  0  0  0  0  0  0  0  0
  -36.6795    2.4929  -45.0620 C   0  0  0  0  0  0  0  0  0  0  0  0
  -36.1108    3.3563  -44.0184 N   0  0  0  0  0  0  0  0  0  0  0  0
  -37.0879    4.3615  -43.5758 C   0  0  0  0  0  0  0  0  0  0  0  0
  -36.4762    5.1987  -42.4494 C   0  0  0  0  0  0  0  0  0  0  0  0
  -35.2596    5.7925  -42.9104 O   0  0  0  0  0  0  0  0  0  0  0  0
  -34.2850    4.8420  -43.3486 C   0  0  0  0  0  0  0  0  0  0  0  0
  -34.8745    4.0012  -44.4841 C   0  0  0  0  0  0  0  0  0  0  0  0
  -34.9329   -0.2142  -47.4227 X   0  0  0  0  0  0  0  0  0  0  0  0
  1  2  1  0  0  0  0
  1 10  1  0  0  0  0
  2  3  1  0  0  0  0
  3  4  1  0  0  0  0
  4  5  1  0  0  0  0
  4  9  1  0  0  0  0
  5  6  1  0  0  0  0
  6  7  1  0  0  0  0
  7  8  1  0  0  0  0
  8  9  1  0  0  0  0
M  END
> <Index>
215

> <PropertyFieldDistance>
nan

$$$$
57933
BBcorina  12272117083D 1   1.00000     0.00000 
CORINA 4.3.0 0026  30.10.2019
  7  7  0  0  0  0  0  0  0  0999 V2000
  -33.3215    3.1266  -43.8058 N   0  0  0  0  0  0  0  0  0  0  0  0
  -34.6909    2.5950  -43.7956 C   0  0  0  0  0  0  0  0  0  0  0  0
  -35.4871    3.1308  -45.0034 C   0  0  0  0  0  0  0  0  0  0  0  0
  -36.9212    3.3846  -44.5069 C   0  0  0  0  0  0  0  0  0  0  0  0
  -36.9465    2.9941  -43.0147 C   0  0  0  0  0  0  0  0  0  0  0  0
  -35.4669    3.1199  -42.5621 C   0  0  0  0  0  0  0  0  0  0  0  0
  -33.3276    4.8363  -43.7770 X   0  0  0  0  0  0  0  0  0  0  0  0
  1  2  1  0  0  0  0
  1  7  1  0  0  0  0
  2  3  1  0  0  0  0
  2  6  1  0  0  0  0
  3  4  1  0  0  0  0
  4  5  1  0  0  0  0
  5  6  1  0  0  0  0
M  END
> <Index>
217

> <PropertyFieldDistance>
nan

$$$$
57934
BBcorina  12272117083D 1   1.00000     0.00000 
CORINA 4.3.0 0026  30.10.2019
 10 10  0  0  0  0  0  0  0  0999 V2000
  -35.6859    0.3962  -43.7984 N   0  0  0  0  0  0  0  0  0  0  0  0
  -35.7058    1.8651  -43.7903 C   0  0  0  0  0  0  0  0  0  0  0  0
  -36.4459    2.3719  -45.0299 C   0  0  0  0  0  0  0  0  0  0  0  0
  -36.1340    3.8551  -45.2387 C   0  0  0  0  0  0  0  0  0  0  0  0
  -34.6366    4.0955  -45.0374 C   0  0  0  0  0  0  0  0  0  0  0  0
  -34.4204    4.9486  -43.7857 C   0  0  0  0  0  0  0  0  0  0  0  0
  -34.6125    4.0819  -42.5396 C   0  0  0  0  0  0  0  0  0  0  0  0
  -36.1058    3.8393  -42.3124 C   0  0  0  0  0  0  0  0  0  0  0  0
  -36.4220    2.3585  -42.5314 C   0  0  0  0  0  0  0  0  0  0  0  0
  -34.2876   -0.2020  -43.0167 X   0  0  0  0  0  0  0  0  0  0  0  0
  1  2  1  0  0  0  0
  1 10  1  0  0  0  0
  2  3  1  0  0  0  0
  2  9  1  0  0  0  0
  3  4  1  0  0  0  0
  4  5  1  0  0  0  0
  5  6  1  0  0  0  0
  6  7  1  0  0  0  0
  7  8  1  0  0  0  0
  8  9  1  0  0  0  0
M  END
> <Index>
218

> <PropertyFieldDistance>
nan

$$$$
57952
BBcorina  12272117083D 1   1.00000     0.00000 
CORINA 4.3.0 0026  30.10.2019
  9  9  0  0  0  0  0  0  0  0999 V2000
  -34.3626    3.5393  -46.1239 N   0  0  0  0  0  0  0  0  0  0  0  0
  -35.2094    3.4190  -44.9295 C   0  0  0  0  0  0  0  0  0  0  0  0
  -34.7796    4.4857  -43.9043 C   0  0  0  0  0  0  0  0  0  0  0  0
  -35.2884    4.1860  -42.4813 C   0  0  0  0  0  0  0  0  0  0  0  0
  -36.7085    3.6887  -42.4704 C   0  0  0  0  0  0  0  0  0  0  0  0
  -36.6876    2.1464  -42.4789 C   0  0  0  0  0  0  0  0  0  0  0  0
  -36.4589    1.6020  -43.8091 C   0  0  0  0  0  0  0  0  0  0  0  0
  -35.0918    2.0199  -44.3883 C   0  0  0  0  0  0  0  0  0  0  0  0
  -32.7433    3.1173  -45.7721 X   0  0  0  0  0  0  0  0  0  0  0  0
  1  2  1  0  0  0  0
  1  9  1  0  0  0  0
  2  3  1  0  0  0  0
  2  8  1  0  0  0  0
  3  4  1  0  0  0  0
  4  5  1  0  0  0  0
  5  6  1  0  0  0  0
  6  7  1  0  0  0  0
  7  8  1  0  0  0  0
M  END
> <Index>
236

> <PropertyFieldDistance>
nan

$$$$
564332
BBcorina  12272117083D 1   1.00000     0.00000 
CORINA 4.3.0 0026  30.10.2019
  8  8  0  0  0  0  0  0  0  0999 V2000
  -32.9415    4.9179  -42.7753 O   0  0  0  0  0  0  0  0  0  0  0  0
  -34.2770    5.0496  -43.2665 C   0  0  0  0  0  0  0  0  0  0  0  0
  -35.2461    5.1685  -42.0869 C   0  0  0  0  0  0  0  0  0  0  0  0
  -36.6793    5.2476  -42.6202 C   0  0  0  0  0  0  0  0  0  0  0  0
  -36.9723    4.0086  -43.4695 C   0  0  0  0  0  0  0  0  0  0  0  0
  -36.0192    3.9414  -44.5845 N   0  0  0  0  0  0  0  0  0  0  0  0
  -34.6396    3.8164  -44.0970 C   0  0  0  0  0  0  0  0  0  0  0  0
  -36.4110    2.6622  -45.6495 X   0  0  0  0  0  0  0  0  0  0  0  0
  1  2  1  0  0  0  0
  2  3  1  0  0  0  0
  2  7  1  0  0  0  0
  3  4  1  0  0  0  0
  4  5  1  0  0  0  0
  5  6  1  0  0  0  0
  6  7  1  0  0  0  0
  6  8  1  0  0  0  0
M  END
> <Index>
243

> <PropertyFieldDistance>
nan

$$$$
57957
BBcorina  12272117083D 1   1.00000     0.00000 
CORINA 4.3.0 0026  30.10.2019
 13 14  0  0  0  0  0  0  0  0999 V2000
  -36.0047    3.6174  -44.3782 N   0  0  0  0  0  0  0  0  0  0  0  0
  -37.0057    4.4935  -43.7535 C   0  0  0  0  0  0  0  0  0  0  0  0
  -36.5671    4.8279  -42.3258 C   0  0  0  0  0  0  0  0  0  0  0  0
  -35.2500    5.4789  -42.3605 N   0  0  0  0  0  0  0  0  0  0  0  0
  -34.2491    4.6029  -42.9852 C   0  0  0  0  0  0  0  0  0  0  0  0
  -34.6877    4.2684  -44.4130 C   0  0  0  0  0  0  0  0  0  0  0  0
  -34.8518    5.8608  -41.0912 C   0  0  0  0  0  0  0  0  0  0  0  0
  -35.6461    5.6088  -40.0610 N   0  0  0  0  0  0  0  0  0  0  0  0
  -35.2980    5.9656  -38.8358 C   0  0  0  0  0  0  0  0  0  0  0  0
  -34.0820    6.6001  -38.6361 C   0  0  0  0  0  0  0  0  0  0  0  0
  -33.2732    6.8435  -39.7351 C   0  0  0  0  0  0  0  0  0  0  0  0
  -33.6834    6.4654  -40.9345 N   0  0  0  0  0  0  0  0  0  0  0  0
  -36.4968    3.1457  -45.9464 X   0  0  0  0  0  0  0  0  0  0  0  0
  1  2  1  0  0  0  0
  1  6  1  0  0  0  0
  1 13  1  0  0  0  0
  2  3  1  0  0  0  0
  3  4  1  0  0  0  0
  4  5  1  0  0  0  0
  4  7  1  0  0  0  0
  5  6  1  0  0  0  0
  7  8  2  0  0  0  0
  7 12  1  0  0  0  0
  8  9  1  0  0  0  0
  9 10  2  0  0  0  0
 10 11  1  0  0  0  0
 11 12  2  0  0  0  0
M  END
> <Index>
245

> <PropertyFieldDistance>
nan

$$$$
102784
BBcorina  12272117083D 1   1.00000     0.00000 
CORINA 4.3.0 0026  30.10.2019
 10 10  0  0  0  0  0  0  0  0999 V2000
  -36.0173    3.5927  -44.4913 N   0  0  0  0  0  0  0  0  0  0  0  0
  -36.3933    2.1751  -44.5752 C   0  0  0  0  0  0  0  0  0  0  0  0
  -36.1059    1.6538  -45.9847 C   0  0  0  0  0  0  0  0  0  0  0  0
  -36.4917    0.1996  -46.0708 C   0  0  0  0  0  0  0  0  0  0  0  0
  -37.6706   -0.0900  -46.5202 C   0  0  0  0  0  0  0  0  0  0  0  0
  -38.2016   -1.4878  -46.6484 C   0  0  0  0  0  0  0  0  0  0  0  0
  -37.0519   -2.4958  -46.5900 C   0  0  0  0  0  0  0  0  0  0  0  0
  -36.1779   -2.1650  -45.3736 C   0  0  0  0  0  0  0  0  0  0  0  0
  -35.4876   -0.8225  -45.6244 C   0  0  0  0  0  0  0  0  0  0  0  0
  -36.3228    4.2163  -42.9287 X   0  0  0  0  0  0  0  0  0  0  0  0
  1  2  1  0  0  0  0
  1 10  1  0  0  0  0
  2  3  1  0  0  0  0
  3  4  1  0  0  0  0
  4  5  2  0  0  0  0
  4  9  1  0  0  0  0
  5  6  1  0  0  0  0
  6  7  1  0  0  0  0
  7  8  1  0  0  0  0
  8  9  1  0  0  0  0
M  END
> <Index>
251

> <PropertyFieldDistance>
nan

$$$$
57982
BBcorina  12272117083D 1   1.00000     0.00000 
CORINA 4.3.0 0026  30.10.2019
  8  8  0  0  0  0  0  0  0  0999 V2000
  -34.9467    6.5602  -41.3976 C   0  0  0  0  0  0  0  0  0  0  0  0
  -35.3535    5.8832  -42.7080 C   0  0  0  0  0  0  0  0  0  0  0  0
  -36.6587    5.1099  -42.5007 C   0  0  0  0  0  0  0  0  0  0  0  0
  -37.0290    4.3869  -43.7977 C   0  0  0  0  0  0  0  0  0  0  0  0
  -35.9480    3.4664  -44.1723 N   0  0  0  0  0  0  0  0  0  0  0  0
  -34.6958    4.1916  -44.4226 C   0  0  0  0  0  0  0  0  0  0  0  0
  -34.2558    4.9088  -43.1443 C   0  0  0  0  0  0  0  0  0  0  0  0
  -36.3899    2.5209  -45.5269 X   0  0  0  0  0  0  0  0  0  0  0  0
  1  2  1  0  0  0  0
  2  3  1  0  0  0  0
  2  7  1  0  0  0  0
  3  4  1  0  0  0  0
  4  5  1  0  0  0  0
  5  6  1  0  0  0  0
  5  8  1  0  0  0  0
  6  7  1  0  0  0  0
M  END
> <Index>
259

> <PropertyFieldDistance>
nan

$$$$
564334
BBcorina  12272117083D 1   1.00000     0.00000 
CORINA 4.3.0 0026  30.10.2019
 10 10  0  0  0  0  0  0  0  0999 V2000
  -36.5878    2.8367  -47.0293 O   0  0  0  0  0  0  0  0  0  0  0  0
  -36.9388    2.0484  -45.8903 C   0  0  0  0  0  0  0  0  0  0  0  0
  -35.8303    2.1472  -44.8403 C   0  0  0  0  0  0  0  0  0  0  0  0
  -35.7401    3.5298  -44.3522 N   0  0  0  0  0  0  0  0  0  0  0  0
  -36.8412    3.8349  -43.4280 C   0  0  0  0  0  0  0  0  0  0  0  0
  -36.7569    5.3035  -43.0054 C   0  0  0  0  0  0  0  0  0  0  0  0
  -35.4554    5.5540  -42.3706 N   0  0  0  0  0  0  0  0  0  0  0  0
  -34.3544    5.2488  -43.2948 C   0  0  0  0  0  0  0  0  0  0  0  0
  -34.4387    3.7802  -43.7173 C   0  0  0  0  0  0  0  0  0  0  0  0
  -35.3504    7.1633  -41.8024 X   0  0  0  0  0  0  0  0  0  0  0  0
  1  2  1  0  0  0  0
  2  3  1  0  0  0  0
  3  4  1  0  0  0  0
  4  5  1  0  0  0  0
  4  9  1  0  0  0  0
  5  6  1  0  0  0  0
  6  7  1  0  0  0  0
  7  8  1  0  0  0  0
  7 10  1  0  0  0  0
  8  9  1  0  0  0  0
M  END
> <Index>
270

> <PropertyFieldDistance>
nan

$$$$
58024
BBcorina  12272117083D 1   1.00000     0.00000 
CORINA 4.3.0 0026  30.10.2019
 13 14  0  0  0  0  0  0  0  0999 V2000
  -36.0050    3.6171  -44.3789 N   0  0  0  0  0  0  0  0  0  0  0  0
  -37.0060    4.4931  -43.7542 C   0  0  0  0  0  0  0  0  0  0  0  0
  -36.5673    4.8277  -42.3265 C   0  0  0  0  0  0  0  0  0  0  0  0
  -35.2503    5.4787  -42.3614 N   0  0  0  0  0  0  0  0  0  0  0  0
  -34.2493    4.6026  -42.9861 C   0  0  0  0  0  0  0  0  0  0  0  0
  -34.6880    4.2681  -44.4137 C   0  0  0  0  0  0  0  0  0  0  0  0
  -34.8502    5.8623  -41.0866 C   0  0  0  0  0  0  0  0  0  0  0  0
  -33.6256    6.4978  -40.9104 C   0  0  0  0  0  0  0  0  0  0  0  0
  -33.2398    6.8738  -39.6363 C   0  0  0  0  0  0  0  0  0  0  0  0
  -34.0951    6.6004  -38.5772 C   0  0  0  0  0  0  0  0  0  0  0  0
  -35.2937    5.9611  -38.8238 C   0  0  0  0  0  0  0  0  0  0  0  0
  -35.6384    5.6190  -40.0505 N   0  0  0  0  0  0  0  0  0  0  0  0
  -36.4971    3.1452  -45.9471 X   0  0  0  0  0  0  0  0  0  0  0  0
  1  2  1  0  0  0  0
  1  6  1  0  0  0  0
  1 13  1  0  0  0  0
  2  3  1  0  0  0  0
  3  4  1  0  0  0  0
  4  5  1  0  0  0  0
  4  7  1  0  0  0  0
  5  6  1  0  0  0  0
  7  8  2  0  0  0  0
  7 12  1  0  0  0  0
  8  9  1  0  0  0  0
  9 10  2  0  0  0  0
 10 11  1  0  0  0  0
 11 12  2  0  0  0  0
M  END
> <Index>
279

> <PropertyFieldDistance>
nan

$$$$
564338
BBcorina  12272117083D 1   1.00000     0.00000 
CORINA 4.3.0 0026  30.10.2019
  9  9  0  0  0  0  0  0  0  0999 V2000
  -31.9098    4.7621  -43.7054 O   0  0  0  0  0  0  0  0  0  0  0  0
  -32.9630    5.6821  -43.4116 C   0  0  0  0  0  0  0  0  0  0  0  0
  -34.2558    4.9088  -43.1443 C   0  0  0  0  0  0  0  0  0  0  0  0
  -35.3535    5.8832  -42.7080 C   0  0  0  0  0  0  0  0  0  0  0  0
  -36.6587    5.1099  -42.5007 C   0  0  0  0  0  0  0  0  0  0  0  0
  -37.0290    4.3869  -43.7977 C   0  0  0  0  0  0  0  0  0  0  0  0
  -35.9479    3.4664  -44.1723 N   0  0  0  0  0  0  0  0  0  0  0  0
  -34.6959    4.1916  -44.4226 C   0  0  0  0  0  0  0  0  0  0  0  0
  -36.3899    2.5210  -45.5269 X   0  0  0  0  0  0  0  0  0  0  0  0
  1  2  1  0  0  0  0
  2  3  1  0  0  0  0
  3  4  1  0  0  0  0
  3  8  1  0  0  0  0
  4  5  1  0  0  0  0
  5  6  1  0  0  0  0
  6  7  1  0  0  0  0
  7  8  1  0  0  0  0
  7  9  1  0  0  0  0
M  END
> <Index>
285

> <PropertyFieldDistance>
nan

$$$$
58051
BBcorina  12272117083D 1   1.00000     0.00000 
CORINA 4.3.0 0026  30.10.2019
  9  9  0  0  0  0  0  0  0  0999 V2000
  -36.3784    2.5003  -44.9695 C   0  0  0  0  0  0  0  0  0  0  0  0
  -36.0080    3.7238  -44.2455 N   0  0  0  0  0  0  0  0  0  0  0  0
  -36.7985    3.8758  -43.0495 C   0  0  0  0  0  0  0  0  0  0  0  0
  -37.1748    5.3461  -42.7699 C   0  0  0  0  0  0  0  0  0  0  0  0
  -35.9948    6.3007  -43.0492 C   0  0  0  0  0  0  0  0  0  0  0  0
  -34.7343    5.7713  -42.5888 N   0  0  0  0  0  0  0  0  0  0  0  0
  -34.0472    5.0707  -43.6978 C   0  0  0  0  0  0  0  0  0  0  0  0
  -34.5679    3.7209  -43.9009 C   0  0  0  0  0  0  0  0  0  0  0  0
  -33.7494    7.0112  -41.9435 X   0  0  0  0  0  0  0  0  0  0  0  0
  1  2  1  0  0  0  0
  2  3  1  0  0  0  0
  2  8  1  0  0  0  0
  3  4  1  0  0  0  0
  4  5  1  0  0  0  0
  5  6  1  0  0  0  0
  6  7  1  0  0  0  0
  6  9  1  0  0  0  0
  7  8  1  0  0  0  0
M  END
> <Index>
293

> <PropertyFieldDistance>
nan

$$$$
58054
BBcorina  12272117083D 1   1.00000     0.00000 
CORINA 4.3.0 0026  30.10.2019
 10 10  0  0  0  0  0  0  0  0999 V2000
  -33.9211    2.7143  -41.9356 C   0  0  0  0  0  0  0  0  0  0  0  0
  -34.6610    3.2211  -43.1751 C   0  0  0  0  0  0  0  0  0  0  0  0
  -33.9449    2.7277  -44.4339 C   0  0  0  0  0  0  0  0  0  0  0  0
  -34.6849    3.2346  -45.6734 C   0  0  0  0  0  0  0  0  0  0  0  0
  -36.1203    2.7050  -45.6626 C   0  0  0  0  0  0  0  0  0  0  0  0
  -36.8364    3.1984  -44.4038 C   0  0  0  0  0  0  0  0  0  0  0  0
  -36.8563    4.6672  -44.3957 N   0  0  0  0  0  0  0  0  0  0  0  0
  -36.0964    2.6916  -43.1642 C   0  0  0  0  0  0  0  0  0  0  0  0
  -36.8126    3.1850  -41.9054 C   0  0  0  0  0  0  0  0  0  0  0  0
  -38.2546    5.2654  -45.1774 X   0  0  0  0  0  0  0  0  0  0  0  0
  1  2  1  0  0  0  0
  2  3  1  0  0  0  0
  2  8  1  0  0  0  0
  3  4  1  0  0  0  0
  4  5  1  0  0  0  0
  5  6  1  0  0  0  0
  6  7  1  0  0  0  0
  6  8  1  0  0  0  0
  7 10  1  0  0  0  0
  8  9  1  0  0  0  0
M  END
> <Index>
297

> <PropertyFieldDistance>
nan

$$$$
58071
BBcorina  12272117083D 1   1.00000     0.00000 
CORINA 4.3.0 0026  30.10.2019
  8  8  0  0  0  0  0  0  0  0999 V2000
  -38.3969    4.0940  -44.0210 C   0  0  0  0  0  0  0  0  0  0  0  0
  -36.9723    4.0087  -43.4695 C   0  0  0  0  0  0  0  0  0  0  0  0
  -36.6793    5.2475  -42.6202 C   0  0  0  0  0  0  0  0  0  0  0  0
  -35.2462    5.1676  -42.0870 C   0  0  0  0  0  0  0  0  0  0  0  0
  -34.2769    5.0496  -43.2665 C   0  0  0  0  0  0  0  0  0  0  0  0
  -34.6396    3.8164  -44.0970 C   0  0  0  0  0  0  0  0  0  0  0  0
  -36.0191    3.9414  -44.5845 N   0  0  0  0  0  0  0  0  0  0  0  0
  -36.4110    2.6621  -45.6495 X   0  0  0  0  0  0  0  0  0  0  0  0
  1  2  1  0  0  0  0
  2  3  1  0  0  0  0
  2  7  1  0  0  0  0
  3  4  1  0  0  0  0
  4  5  1  0  0  0  0
  5  6  1  0  0  0  0
  6  7  1  0  0  0  0
  7  8  1  0  0  0  0
M  END
> <Index>
309

> <PropertyFieldDistance>
nan

$$$$
236970
BBcorina  12272117083D 1   1.00000     0.00000 
CORINA 4.3.0 0026  30.10.2019
  9  9  0  0  0  0  0  0  0  0999 V2000
  -35.9384    3.5336  -44.0069 N   0  0  0  0  0  0  0  0  0  0  0  0
  -36.7961    4.7091  -43.7994 C   0  0  0  0  0  0  0  0  0  0  0  0
  -37.1742    4.8056  -42.3177 C   0  0  0  0  0  0  0  0  0  0  0  0
  -35.9763    5.3228  -41.5220 C   0  0  0  0  0  0  0  0  0  0  0  0
  -34.9513    4.2014  -41.3506 C   0  0  0  0  0  0  0  0  0  0  0  0
  -33.6880    4.5434  -42.1446 C   0  0  0  0  0  0  0  0  0  0  0  0
  -34.0988    5.0853  -43.5178 C   0  0  0  0  0  0  0  0  0  0  0  0
  -34.5798    3.9301  -44.3959 C   0  0  0  0  0  0  0  0  0  0  0  0
  -36.6212    2.4728  -45.1613 X   0  0  0  0  0  0  0  0  0  0  0  0
  1  2  1  0  0  0  0
  1  8  1  0  0  0  0
  1  9  1  0  0  0  0
  2  3  1  0  0  0  0
  3  4  1  0  0  0  0
  4  5  1  0  0  0  0
  5  6  1  0  0  0  0
  6  7  1  0  0  0  0
  7  8  1  0  0  0  0
M  END
> <Index>
310

> <PropertyFieldDistance>
nan

$$$$
58073
BBcorina  12272117083D 1   1.00000     0.00000 
CORINA 4.3.0 0026  30.10.2019
  9  9  0  0  0  0  0  0  0  0999 V2000
  -36.7641    3.4328  -41.7300 C   0  0  0  0  0  0  0  0  0  0  0  0
  -35.8475    3.6347  -42.9384 C   0  0  0  0  0  0  0  0  0  0  0  0
  -36.6639    4.1785  -44.1126 C   0  0  0  0  0  0  0  0  0  0  0  0
  -35.7474    4.3803  -45.3209 C   0  0  0  0  0  0  0  0  0  0  0  0
  -35.1187    3.0418  -45.7134 C   0  0  0  0  0  0  0  0  0  0  0  0
  -34.3023    2.4981  -44.5392 C   0  0  0  0  0  0  0  0  0  0  0  0
  -35.2188    2.2962  -43.3308 C   0  0  0  0  0  0  0  0  0  0  0  0
  -34.4349    1.7741  -42.2035 N   0  0  0  0  0  0  0  0  0  0  0  0
  -34.4117    0.0643  -42.2129 X   0  0  0  0  0  0  0  0  0  0  0  0
  1  2  1  0  0  0  0
  2  3  1  0  0  0  0
  2  7  1  0  0  0  0
  3  4  1  0  0  0  0
  4  5  1  0  0  0  0
  5  6  1  0  0  0  0
  6  7  1  0  0  0  0
  7  8  1  0  0  0  0
  8  9  1  0  0  0  0
M  END
> <Index>
312

> <PropertyFieldDistance>
nan

$$$$
136352
BBcorina  12272117083D 1   1.00000     0.00000 
CORINA 4.3.0 0026  30.10.2019
 13 14  0  0  0  0  0  0  0  0999 V2000
  -36.3825    2.3689  -46.0070 C   0  0  0  0  0  0  0  0  0  0  0  0
  -36.1492    1.9918  -44.5427 C   0  0  0  0  0  0  0  0  0  0  0  0
  -35.8522    3.2031  -43.7665 N   0  0  0  0  0  0  0  0  0  0  0  0
  -36.9438    4.1809  -43.8779 C   0  0  0  0  0  0  0  0  0  0  0  0
  -36.7988    5.2404  -42.7810 C   0  0  0  0  0  0  0  0  0  0  0  0
  -35.3707    5.7658  -42.8150 C   0  0  0  0  0  0  0  0  0  0  0  0
  -34.9611    6.8902  -42.2433 N   0  0  0  0  0  0  0  0  0  0  0  0
  -33.7105    7.2014  -42.3629 C   0  0  0  0  0  0  0  0  0  0  0  0
  -33.1202    8.3363  -41.8292 N   0  0  0  0  0  0  0  0  0  0  0  0
  -32.8928    6.0090  -43.2747 S   0  0  0  0  0  0  0  0  0  0  0  0
  -34.3879    5.1027  -43.4501 C   0  0  0  0  0  0  0  0  0  0  0  0
  -34.5711    3.7960  -44.1838 C   0  0  0  0  0  0  0  0  0  0  0  0
  -31.4511    8.6234  -42.0653 X   0  0  0  0  0  0  0  0  0  0  0  0
  1  2  1  0  0  0  0
  2  3  1  0  0  0  0
  3  4  1  0  0  0  0
  3 12  1  0  0  0  0
  4  5  1  0  0  0  0
  5  6  1  0  0  0  0
  6  7  1  0  0  0  0
  6 11  2  0  0  0  0
  7  8  2  0  0  0  0
  8  9  1  0  0  0  0
  8 10  1  0  0  0  0
  9 13  1  0  0  0  0
 10 11  1  0  0  0  0
 11 12  1  0  0  0  0
M  END
> <Index>
324

> <PropertyFieldDistance>
nan

$$$$
58250
BBcorina  12272117083D 1   1.00000     0.00000 
CORINA 4.3.0 0026  30.10.2019
 15 17  0  0  0  0  0  0  0  0999 V2000
  -36.2559    4.1432  -43.2330 N   0  0  0  0  0  0  0  0  0  0  0  0
  -36.0415    3.5551  -44.4472 N   0  0  0  0  0  0  0  0  0  0  0  0
  -36.3528    2.2568  -44.6314 C   0  0  0  0  0  0  0  0  0  0  0  0
  -36.8185    1.6093  -43.7176 O   0  0  0  0  0  0  0  0  0  0  0  0
  -36.1221    1.6097  -45.9726 C   0  0  0  0  0  0  0  0  0  0  0  0
  -36.5562    0.1437  -45.9130 C   0  0  0  0  0  0  0  0  0  0  0  0
  -36.3221   -0.5133  -47.2747 C   0  0  0  0  0  0  0  0  0  0  0  0
  -34.8359   -0.4356  -47.6297 C   0  0  0  0  0  0  0  0  0  0  0  0
  -34.4018    1.0304  -47.6893 C   0  0  0  0  0  0  0  0  0  0  0  0
  -35.2198    1.7614  -48.7559 C   0  0  0  0  0  0  0  0  0  0  0  0
  -36.7060    1.6836  -48.4008 C   0  0  0  0  0  0  0  0  0  0  0  0
  -37.1401    0.2177  -48.3412 C   0  0  0  0  0  0  0  0  0  0  0  0
  -36.9402    2.3407  -47.0391 C   0  0  0  0  0  0  0  0  0  0  0  0
  -34.6360    1.6874  -46.3276 C   0  0  0  0  0  0  0  0  0  0  0  0
  -34.8227    4.8623  -42.6388 X   0  0  0  0  0  0  0  0  0  0  0  0
  1  2  1  0  0  0  0
  1 15  1  0  0  0  0
  2  3  1  0  0  0  0
  3  4  2  0  0  0  0
  3  5  1  0  0  0  0
  5  6  1  0  0  0  0
  5 13  1  0  0  0  0
  5 14  1  0  0  0  0
  6  7  1  0  0  0  0
  7  8  1  0  0  0  0
  7 12  1  0  0  0  0
  8  9  1  0  0  0  0
  9 10  1  0  0  0  0
  9 14  1  0  0  0  0
 10 11  1  0  0  0  0
 11 12  1  0  0  0  0
 11 13  1  0  0  0  0
M  END
> <Index>
378

> <PropertyFieldDistance>
nan

$$$$
58315
BBcorina  12272117083D 1   1.00000     0.00000 
CORINA 4.3.0 0026  30.10.2019
 11 11  0  0  0  0  0  0  0  0999 V2000
  -35.2968    7.9349  -39.5018 C   0  0  0  0  0  0  0  0  0  0  0  0
  -35.6571    6.7211  -40.2126 O   0  0  0  0  0  0  0  0  0  0  0  0
  -34.9307    6.4122  -41.2983 C   0  0  0  0  0  0  0  0  0  0  0  0
  -34.0238    7.1323  -41.6431 O   0  0  0  0  0  0  0  0  0  0  0  0
  -35.2462    5.1675  -42.0868 C   0  0  0  0  0  0  0  0  0  0  0  0
  -36.6793    5.2476  -42.6203 C   0  0  0  0  0  0  0  0  0  0  0  0
  -36.9723    4.0086  -43.4694 C   0  0  0  0  0  0  0  0  0  0  0  0
  -36.0191    3.9414  -44.5845 N   0  0  0  0  0  0  0  0  0  0  0  0
  -34.6396    3.8164  -44.0971 C   0  0  0  0  0  0  0  0  0  0  0  0
  -34.2769    5.0496  -43.2664 C   0  0  0  0  0  0  0  0  0  0  0  0
  -36.4111    2.6624  -45.6495 X   0  0  0  0  0  0  0  0  0  0  0  0
  1  2  1  0  0  0  0
  2  3  1  0  0  0  0
  3  4  2  0  0  0  0
  3  5  1  0  0  0  0
  5  6  1  0  0  0  0
  5 10  1  0  0  0  0
  6  7  1  0  0  0  0
  7  8  1  0  0  0  0
  8  9  1  0  0  0  0
  8 11  1  0  0  0  0
  9 10  1  0  0  0  0
M  END
> <Index>
427

> <PropertyFieldDistance>
nan

$$$$
135472
BBcorina  12272117083D 1   1.00000     0.00000 
CORINA 4.3.0 0026  30.10.2019
 10 10  0  0  0  0  0  0  0  0999 V2000
  -36.9519    1.8708  -45.6766 C   0  0  0  0  0  0  0  0  0  0  0  0
  -35.7559    2.2051  -44.7829 C   0  0  0  0  0  0  0  0  0  0  0  0
  -35.7179    3.6528  -44.5370 N   0  0  0  0  0  0  0  0  0  0  0  0
  -37.0000    4.1290  -43.9862 C   0  0  0  0  0  0  0  0  0  0  0  0
  -36.6907    4.8248  -42.6440 C   0  0  0  0  0  0  0  0  0  0  0  0
  -35.1929    5.2038  -42.7838 C   0  0  0  0  0  0  0  0  0  0  0  0
  -34.6394    4.0009  -43.5876 C   0  0  0  0  0  0  0  0  0  0  0  0
  -33.3716    4.4011  -44.3449 C   0  0  0  0  0  0  0  0  0  0  0  0
  -32.9743    3.3106  -45.2454 N   0  0  0  0  0  0  0  0  0  0  0  0
  -31.5583    3.7178  -46.1132 X   0  0  0  0  0  0  0  0  0  0  0  0
  1  2  1  0  0  0  0
  2  3  1  0  0  0  0
  3  4  1  0  0  0  0
  3  7  1  0  0  0  0
  4  5  1  0  0  0  0
  5  6  1  0  0  0  0
  6  7  1  0  0  0  0
  7  8  1  0  0  0  0
  8  9  1  0  0  0  0
  9 10  1  0  0  0  0
M  END
> <Index>
480

> <PropertyFieldDistance>
nan

$$$$
58396
BBcorina  12272117083D 1   1.00000     0.00000 
CORINA 4.3.0 0026  30.10.2019
 14 16  0  0  0  0  0  0  0  0999 V2000
  -36.0172    3.5927  -44.4913 N   0  0  0  0  0  0  0  0  0  0  0  0
  -36.3934    2.1751  -44.5752 C   0  0  0  0  0  0  0  0  0  0  0  0
  -36.1059    1.6538  -45.9847 C   0  0  0  0  0  0  0  0  0  0  0  0
  -36.4976    0.1773  -46.0720 C   0  0  0  0  0  0  0  0  0  0  0  0
  -36.2103   -0.3439  -47.4815 C   0  0  0  0  0  0  0  0  0  0  0  0
  -36.6019   -1.8204  -47.5689 C   0  0  0  0  0  0  0  0  0  0  0  0
  -35.7894   -2.6246  -46.5521 C   0  0  0  0  0  0  0  0  0  0  0  0
  -36.0767   -2.1033  -45.1426 C   0  0  0  0  0  0  0  0  0  0  0  0
  -37.5684   -2.2542  -44.8373 C   0  0  0  0  0  0  0  0  0  0  0  0
  -38.3809   -1.4499  -45.8541 C   0  0  0  0  0  0  0  0  0  0  0  0
  -38.0936   -1.9712  -47.2635 C   0  0  0  0  0  0  0  0  0  0  0  0
  -37.9892    0.0265  -45.7667 C   0  0  0  0  0  0  0  0  0  0  0  0
  -35.6851   -0.6269  -45.0552 C   0  0  0  0  0  0  0  0  0  0  0  0
  -36.3229    4.2164  -42.9287 X   0  0  0  0  0  0  0  0  0  0  0  0
  1  2  1  0  0  0  0
  1 14  1  0  0  0  0
  2  3  1  0  0  0  0
  3  4  1  0  0  0  0
  4  5  1  0  0  0  0
  4 12  1  0  0  0  0
  4 13  1  0  0  0  0
  5  6  1  0  0  0  0
  6  7  1  0  0  0  0
  6 11  1  0  0  0  0
  7  8  1  0  0  0  0
  8  9  1  0  0  0  0
  8 13  1  0  0  0  0
  9 10  1  0  0  0  0
 10 11  1  0  0  0  0
 10 12  1  0  0  0  0
M  END
> <Index>
486

> <PropertyFieldDistance>
nan

$$$$
58512
BBcorina  12272117083D 1   1.00000     0.00000 
CORINA 4.3.0 0026  30.10.2019
  8  8  0  0  0  0  0  0  0  0999 V2000
  -35.9592    3.4742  -44.1474 N   0  0  0  0  0  0  0  0  0  0  0  0
  -36.9707    4.4949  -43.8289 C   0  0  0  0  0  0  0  0  0  0  0  0
  -36.6725    5.0652  -42.4409 C   0  0  0  0  0  0  0  0  0  0  0  0
  -35.2702    5.4628  -42.3541 N   0  0  0  0  0  0  0  0  0  0  0  0
  -34.3362    5.0233  -43.2040 C   0  0  0  0  0  0  0  0  0  0  0  0
  -33.1885    5.3797  -43.0410 O   0  0  0  0  0  0  0  0  0  0  0  0
  -34.6489    4.1061  -44.3523 C   0  0  0  0  0  0  0  0  0  0  0  0
  -36.4203    2.5613  -45.5180 X   0  0  0  0  0  0  0  0  0  0  0  0
  1  2  1  0  0  0  0
  1  7  1  0  0  0  0
  1  8  1  0  0  0  0
  2  3  1  0  0  0  0
  3  4  1  0  0  0  0
  4  5  1  0  0  0  0
  5  6  2  0  0  0  0
  5  7  1  0  0  0  0
M  END
> <Index>
560

> <PropertyFieldDistance>
nan

$$$$
58532
BBcorina  12272117083D 1   1.00000     0.00000 
CORINA 4.3.0 0026  30.10.2019
 15 16  0  0  0  0  0  0  0  0999 V2000
  -37.5872    5.7723  -41.6882 C   0  0  0  0  0  0  0  0  0  0  0  0
  -36.5675    4.8274  -42.3273 C   0  0  0  0  0  0  0  0  0  0  0  0
  -37.0063    4.4928  -43.7550 C   0  0  0  0  0  0  0  0  0  0  0  0
  -36.0054    3.6167  -44.3796 N   0  0  0  0  0  0  0  0  0  0  0  0
  -34.6884    4.2678  -44.4146 C   0  0  0  0  0  0  0  0  0  0  0  0
  -34.2496    4.6025  -42.9870 C   0  0  0  0  0  0  0  0  0  0  0  0
  -35.2505    5.4785  -42.3623 N   0  0  0  0  0  0  0  0  0  0  0  0
  -34.8485    5.8641  -41.0815 C   0  0  0  0  0  0  0  0  0  0  0  0
  -34.5982    4.9021  -40.1115 C   0  0  0  0  0  0  0  0  0  0  0  0
  -34.2004    5.2868  -38.8459 C   0  0  0  0  0  0  0  0  0  0  0  0
  -34.0459    6.6276  -38.5459 C   0  0  0  0  0  0  0  0  0  0  0  0
  -34.2998    7.5884  -39.5078 C   0  0  0  0  0  0  0  0  0  0  0  0
  -34.1360    9.0489  -39.1743 C   0  0  0  0  0  0  0  0  0  0  0  0
  -34.6978    7.2108  -40.7749 C   0  0  0  0  0  0  0  0  0  0  0  0
  -36.4975    3.1447  -45.9478 X   0  0  0  0  0  0  0  0  0  0  0  0
  1  2  1  0  0  0  0
  2  3  1  0  0  0  0
  2  7  1  0  0  0  0
  3  4  1  0  0  0  0
  4  5  1  0  0  0  0
  4 15  1  0  0  0  0
  5  6  1  0  0  0  0
  6  7  1  0  0  0  0
  7  8  1  0  0  0  0
  8  9  2  0  0  0  0
  8 14  1  0  0  0  0
  9 10  1  0  0  0  0
 10 11  2  0  0  0  0
 11 12  1  0  0  0  0
 12 13  1  0  0  0  0
 12 14  2  0  0  0  0
M  END
> <Index>
577

> <PropertyFieldDistance>
nan

$$$$
58596
BBcorina  12272117083D 1   1.00000     0.00000 
CORINA 4.3.0 0026  30.10.2019
 14 15  0  0  0  0  0  0  0  0999 V2000
  -35.2228    5.5600  -42.5621 N   0  0  0  0  0  0  0  0  0  0  0  0
  -36.6552    5.4328  -42.8618 C   0  0  0  0  0  0  0  0  0  0  0  0
  -37.0163    3.9493  -42.9935 C   0  0  0  0  0  0  0  0  0  0  0  0
  -36.1172    3.3356  -43.9825 N   0  0  0  0  0  0  0  0  0  0  0  0
  -34.6687    3.5362  -43.8249 C   0  0  0  0  0  0  0  0  0  0  0  0
  -34.4000    5.0359  -43.6605 C   0  0  0  0  0  0  0  0  0  0  0  0
  -36.6075    2.6083  -45.0058 C   0  0  0  0  0  0  0  0  0  0  0  0
  -37.8049    2.4528  -45.1202 O   0  0  0  0  0  0  0  0  0  0  0  0
  -35.6680    1.9884  -46.0077 C   0  0  0  0  0  0  0  0  0  0  0  0
  -34.7932    0.9243  -45.3172 C   0  0  0  0  0  0  0  0  0  0  0  0
  -35.0954   -0.3791  -46.0959 C   0  0  0  0  0  0  0  0  0  0  0  0
  -35.6541    0.1650  -47.4353 C   0  0  0  0  0  0  0  0  0  0  0  0
  -36.4200    1.3218  -47.0355 O   0  0  0  0  0  0  0  0  0  0  0  0
  -34.8124    7.1820  -42.2090 X   0  0  0  0  0  0  0  0  0  0  0  0
  1  2  1  0  0  0  0
  1  6  1  0  0  0  0
  1 14  1  0  0  0  0
  2  3  1  0  0  0  0
  3  4  1  0  0  0  0
  4  5  1  0  0  0  0
  4  7  1  0  0  0  0
  5  6  1  0  0  0  0
  7  8  2  0  0  0  0
  7  9  1  0  0  0  0
  9 10  1  0  0  0  0
  9 13  1  0  0  0  0
 10 11  1  0  0  0  0
 11 12  1  0  0  0  0
 12 13  1  0  0  0  0
M  END
> <Index>
602

> <PropertyFieldDistance>
nan

$$$$
58666
BBcorina  12272117083D 1   1.00000     0.00000 
CORINA 4.3.0 0026  30.10.2019
 12 12  0  0  0  0  0  0  0  0999 V2000
  -36.3897    2.3724  -46.0128 C   0  0  0  0  0  0  0  0  0  0  0  0
  -36.1253    1.9774  -44.5585 C   0  0  0  0  0  0  0  0  0  0  0  0
  -37.3514    1.2565  -43.9949 C   0  0  0  0  0  0  0  0  0  0  0  0
  -34.9126    1.0467  -44.4951 C   0  0  0  0  0  0  0  0  0  0  0  0
  -34.6587    0.6675  -43.0988 N   0  0  0  0  0  0  0  0  0  0  0  0
  -35.8586    3.1841  -43.7641 N   0  0  0  0  0  0  0  0  0  0  0  0
  -37.0050    4.1036  -43.8019 C   0  0  0  0  0  0  0  0  0  0  0  0
  -36.7089    5.3163  -42.9155 C   0  0  0  0  0  0  0  0  0  0  0  0
  -35.4999    5.9396  -43.3573 O   0  0  0  0  0  0  0  0  0  0  0  0
  -34.3629    5.0726  -43.3328 C   0  0  0  0  0  0  0  0  0  0  0  0
  -34.6352    3.8575  -44.2234 C   0  0  0  0  0  0  0  0  0  0  0  0
  -33.3082   -0.3749  -42.9827 X   0  0  0  0  0  0  0  0  0  0  0  0
  1  2  1  0  0  0  0
  2  3  1  0  0  0  0
  2  4  1  0  0  0  0
  2  6  1  0  0  0  0
  4  5  1  0  0  0  0
  5 12  1  0  0  0  0
  6  7  1  0  0  0  0
  6 11  1  0  0  0  0
  7  8  1  0  0  0  0
  8  9  1  0  0  0  0
  9 10  1  0  0  0  0
 10 11  1  0  0  0  0
M  END
> <Index>
646

> <PropertyFieldDistance>
nan

$$$$
58695
BBcorina  12272117083D 1   1.00000     0.00000 
CORINA 4.3.0 0026  30.10.2019
 10 10  0  0  0  0  0  0  0  0999 V2000
  -31.8751    5.0129  -43.8075 N   0  0  0  0  0  0  0  0  0  0  0  0
  -32.9819    5.6696  -43.4074 C   0  0  0  0  0  0  0  0  0  0  0  0
  -32.9526    6.8730  -43.2589 O   0  0  0  0  0  0  0  0  0  0  0  0
  -34.2559    4.9088  -43.1443 C   0  0  0  0  0  0  0  0  0  0  0  0
  -35.3534    5.8832  -42.7079 C   0  0  0  0  0  0  0  0  0  0  0  0
  -36.6587    5.1099  -42.5007 C   0  0  0  0  0  0  0  0  0  0  0  0
  -37.0291    4.3869  -43.7977 C   0  0  0  0  0  0  0  0  0  0  0  0
  -35.9479    3.4664  -44.1723 N   0  0  0  0  0  0  0  0  0  0  0  0
  -34.6958    4.1916  -44.4226 C   0  0  0  0  0  0  0  0  0  0  0  0
  -36.3899    2.5210  -45.5270 X   0  0  0  0  0  0  0  0  0  0  0  0
  1  2  1  0  0  0  0
  2  3  2  0  0  0  0
  2  4  1  0  0  0  0
  4  5  1  0  0  0  0
  4  9  1  0  0  0  0
  5  6  1  0  0  0  0
  6  7  1  0  0  0  0
  7  8  1  0  0  0  0
  8  9  1  0  0  0  0
  8 10  1  0  0  0  0
M  END
> <Index>
661

> <PropertyFieldDistance>
nan

$$$$
130460
BBcorina  12272117083D 1   1.00000     0.00000 
CORINA 4.3.0 0026  30.10.2019
 11 11  0  0  0  0  0  0  0  0999 V2000
  -35.7067    1.8923  -46.0006 C   0  0  0  0  0  0  0  0  0  0  0  0
  -36.5787    2.2848  -44.8064 C   0  0  0  0  0  0  0  0  0  0  0  0
  -38.0442    2.3432  -45.2423 C   0  0  0  0  0  0  0  0  0  0  0  0
  -36.1631    3.6029  -44.3087 N   0  0  0  0  0  0  0  0  0  0  0  0
  -36.9801    4.0132  -43.1596 C   0  0  0  0  0  0  0  0  0  0  0  0
  -36.6188    5.4458  -42.7606 C   0  0  0  0  0  0  0  0  0  0  0  0
  -35.1315    5.5109  -42.4024 C   0  0  0  0  0  0  0  0  0  0  0  0
  -34.3048    5.0327  -43.5993 C   0  0  0  0  0  0  0  0  0  0  0  0
  -34.7333    3.6121  -43.9739 C   0  0  0  0  0  0  0  0  0  0  0  0
  -34.7656    6.8954  -42.0748 N   0  0  0  0  0  0  0  0  0  0  0  0
  -35.1567    7.9531  -43.3602 X   0  0  0  0  0  0  0  0  0  0  0  0
  1  2  1  0  0  0  0
  2  3  1  0  0  0  0
  2  4  1  0  0  0  0
  4  5  1  0  0  0  0
  4  9  1  0  0  0  0
  5  6  1  0  0  0  0
  6  7  1  0  0  0  0
  7  8  1  0  0  0  0
  7 10  1  0  0  0  0
  8  9  1  0  0  0  0
 10 11  1  0  0  0  0
M  END
> <Index>
662

> <PropertyFieldDistance>
nan

$$$$
130461
BBcorina  12272117083D 1   1.00000     0.00000 
CORINA 4.3.0 0026  30.10.2019
  9  9  0  0  0  0  0  0  0  0999 V2000
  -36.3354    2.3075  -44.8787 C   0  0  0  0  0  0  0  0  0  0  0  0
  -35.9453    3.3416  -43.9110 N   0  0  0  0  0  0  0  0  0  0  0  0
  -37.0432    4.2897  -43.6828 C   0  0  0  0  0  0  0  0  0  0  0  0
  -36.6554    5.2625  -42.5667 C   0  0  0  0  0  0  0  0  0  0  0  0
  -35.3834    6.0133  -42.9700 C   0  0  0  0  0  0  0  0  0  0  0  0
  -34.2691    5.0007  -43.2489 C   0  0  0  0  0  0  0  0  0  0  0  0
  -34.7262    4.0356  -44.3451 C   0  0  0  0  0  0  0  0  0  0  0  0
  -34.9733    6.9062  -41.8781 N   0  0  0  0  0  0  0  0  0  0  0  0
  -34.6572    6.0217  -40.4491 X   0  0  0  0  0  0  0  0  0  0  0  0
  1  2  1  0  0  0  0
  2  3  1  0  0  0  0
  2  7  1  0  0  0  0
  3  4  1  0  0  0  0
  4  5  1  0  0  0  0
  5  6  1  0  0  0  0
  5  8  1  0  0  0  0
  6  7  1  0  0  0  0
  8  9  1  0  0  0  0
M  END
> <Index>
663

> <PropertyFieldDistance>
nan

$$$$
58704
BBcorina  12272117083D 1   1.00000     0.00000 
CORINA 4.3.0 0026  30.10.2019
 16 17  0  0  0  0  0  0  0  0999 V2000
  -36.4280    2.6262  -45.2585 C   0  0  0  0  0  0  0  0  0  0  0  0
  -35.9862    3.2985  -44.0294 N   0  0  0  0  0  0  0  0  0  0  0  0
  -37.0076    4.2385  -43.5469 C   0  0  0  0  0  0  0  0  0  0  0  0
  -36.5443    4.8573  -42.2260 C   0  0  0  0  0  0  0  0  0  0  0  0
  -35.2596    5.5403  -42.4319 N   0  0  0  0  0  0  0  0  0  0  0  0
  -34.2381    4.6004  -42.9144 C   0  0  0  0  0  0  0  0  0  0  0  0
  -34.7014    3.9816  -44.2353 C   0  0  0  0  0  0  0  0  0  0  0  0
  -34.8385    6.1810  -41.2605 C   0  0  0  0  0  0  0  0  0  0  0  0
  -35.6170    6.1117  -40.1131 C   0  0  0  0  0  0  0  0  0  0  0  0
  -35.2017    6.7438  -38.9574 C   0  0  0  0  0  0  0  0  0  0  0  0
  -34.0055    7.4484  -38.9432 C   0  0  0  0  0  0  0  0  0  0  0  0
  -33.5846    8.0895  -37.7719 N   0  0  0  0  0  0  0  0  0  0  0  0
  -33.2269    7.5183  -40.0911 C   0  0  0  0  0  0  0  0  0  0  0  0
  -31.9286    8.2831  -40.0756 C   0  0  0  0  0  0  0  0  0  0  0  0
  -33.6422    6.8863  -41.2463 C   0  0  0  0  0  0  0  0  0  0  0  0
  -34.6030    8.1161  -36.3985 X   0  0  0  0  0  0  0  0  0  0  0  0
  1  2  1  0  0  0  0
  2  3  1  0  0  0  0
  2  7  1  0  0  0  0
  3  4  1  0  0  0  0
  4  5  1  0  0  0  0
  5  6  1  0  0  0  0
  5  8  1  0  0  0  0
  6  7  1  0  0  0  0
  8  9  2  0  0  0  0
  8 15  1  0  0  0  0
  9 10  1  0  0  0  0
 10 11  2  0  0  0  0
 11 12  1  0  0  0  0
 11 13  1  0  0  0  0
 12 16  1  0  0  0  0
 13 14  1  0  0  0  0
 13 15  2  0  0  0  0
M  END
> <Index>
672

> <PropertyFieldDistance>
nan

$$$$
12546672
BBcorina  12272117083D 1   1.00000     0.00000 
CORINA 4.3.0 0026  30.10.2019
 12 12  0  0  0  0  0  0  0  0999 V2000
  -36.7077    1.4517  -48.3544 N   0  0  0  0  0  0  0  0  0  0  0  0
  -36.5258    1.2059  -47.0230 N   0  0  0  0  0  0  0  0  0  0  0  0
  -36.3412    2.2309  -46.1677 C   0  0  0  0  0  0  0  0  0  0  0  0
  -36.3364    3.3715  -46.5799 O   0  0  0  0  0  0  0  0  0  0  0  0
  -36.1405    1.9598  -44.6989 C   0  0  0  0  0  0  0  0  0  0  0  0
  -35.9630    3.2283  -43.9878 N   0  0  0  0  0  0  0  0  0  0  0  0
  -37.0597    4.0141  -43.4098 C   0  0  0  0  0  0  0  0  0  0  0  0
  -36.4770    5.4246  -43.1702 C   0  0  0  0  0  0  0  0  0  0  0  0
  -34.9678    5.1216  -43.0239 C   0  0  0  0  0  0  0  0  0  0  0  0
  -34.7746    3.8255  -43.7799 C   0  0  0  0  0  0  0  0  0  0  0  0
  -33.7044    3.3877  -44.1460 O   0  0  0  0  0  0  0  0  0  0  0  0
  -35.5721    0.5886  -49.2976 X   0  0  0  0  0  0  0  0  0  0  0  0
  1  2  1  0  0  0  0
  1 12  1  0  0  0  0
  2  3  1  0  0  0  0
  3  4  2  0  0  0  0
  3  5  1  0  0  0  0
  5  6  1  0  0  0  0
  6  7  1  0  0  0  0
  6 10  1  0  0  0  0
  7  8  1  0  0  0  0
  8  9  1  0  0  0  0
  9 10  1  0  0  0  0
 10 11  2  0  0  0  0
M  END
> <Index>
679

> <PropertyFieldDistance>
nan

$$$$
1273230
BBcorina  12272117083D 1   1.00000     0.00000 
CORINA 4.3.0 0026  30.10.2019
 14 15  0  0  0  0  0  0  0  0999 V2000
  -33.0049    1.5133  -48.0918 N   0  0  0  0  0  0  0  0  0  0  0  0
  -33.8948    1.2459  -47.0633 C   0  0  0  0  0  0  0  0  0  0  0  0
  -34.8073    2.0640  -46.6388 N   0  0  0  0  0  0  0  0  0  0  0  0
  -35.5712    1.6434  -45.6464 C   0  0  0  0  0  0  0  0  0  0  0  0
  -36.6705    2.4855  -45.0517 C   0  0  0  0  0  0  0  0  0  0  0  0
  -36.1068    3.3728  -44.0255 N   0  0  0  0  0  0  0  0  0  0  0  0
  -37.0940    4.3694  -43.5915 C   0  0  0  0  0  0  0  0  0  0  0  0
  -36.5244    5.1793  -42.4246 C   0  0  0  0  0  0  0  0  0  0  0  0
  -35.2346    5.8725  -42.8725 C   0  0  0  0  0  0  0  0  0  0  0  0
  -34.2413    4.8164  -43.3649 C   0  0  0  0  0  0  0  0  0  0  0  0
  -34.8772    4.0170  -44.5045 C   0  0  0  0  0  0  0  0  0  0  0  0
  -35.2910    0.4140  -45.2132 C   0  0  0  0  0  0  0  0  0  0  0  0
  -33.9544   -0.2132  -46.1744 S   0  0  0  0  0  0  0  0  0  0  0  0
  -33.0673    3.0148  -48.9076 X   0  0  0  0  0  0  0  0  0  0  0  0
  1  2  1  0  0  0  0
  1 14  1  0  0  0  0
  2  3  2  0  0  0  0
  2 13  1  0  0  0  0
  3  4  1  0  0  0  0
  4  5  1  0  0  0  0
  4 12  2  0  0  0  0
  5  6  1  0  0  0  0
  6  7  1  0  0  0  0
  6 11  1  0  0  0  0
  7  8  1  0  0  0  0
  8  9  1  0  0  0  0
  9 10  1  0  0  0  0
 10 11  1  0  0  0  0
 12 13  1  0  0  0  0
M  END
> <Index>
681

> <PropertyFieldDistance>
nan

$$$$
998740
BBcorina  12272117083D 1   1.00000     0.00000 
CORINA 4.3.0 0026  30.10.2019
 14 15  0  0  0  0  0  0  0  0999 V2000
  -32.9939    1.5138  -48.0859 N   0  0  0  0  0  0  0  0  0  0  0  0
  -33.8968    1.2430  -47.0697 C   0  0  0  0  0  0  0  0  0  0  0  0
  -34.7987    2.0686  -46.6376 N   0  0  0  0  0  0  0  0  0  0  0  0
  -35.5802    1.6419  -45.6614 C   0  0  0  0  0  0  0  0  0  0  0  0
  -36.6737    2.4894  -45.0641 C   0  0  0  0  0  0  0  0  0  0  0  0
  -36.1080    3.3541  -44.0199 N   0  0  0  0  0  0  0  0  0  0  0  0
  -37.0874    4.3582  -43.5795 C   0  0  0  0  0  0  0  0  0  0  0  0
  -36.4788    5.1968  -42.4526 C   0  0  0  0  0  0  0  0  0  0  0  0
  -35.2622    5.7922  -42.9117 O   0  0  0  0  0  0  0  0  0  0  0  0
  -34.2855    4.8427  -43.3477 C   0  0  0  0  0  0  0  0  0  0  0  0
  -34.8718    4.0006  -44.4838 C   0  0  0  0  0  0  0  0  0  0  0  0
  -35.3198    0.4027  -45.2441 C   0  0  0  0  0  0  0  0  0  0  0  0
  -33.9788   -0.2257  -46.1982 S   0  0  0  0  0  0  0  0  0  0  0  0
  -33.0288    3.0282  -48.8793 X   0  0  0  0  0  0  0  0  0  0  0  0
  1  2  1  0  0  0  0
  1 14  1  0  0  0  0
  2  3  2  0  0  0  0
  2 13  1  0  0  0  0
  3  4  1  0  0  0  0
  4  5  1  0  0  0  0
  4 12  2  0  0  0  0
  5  6  1  0  0  0  0
  6  7  1  0  0  0  0
  6 11  1  0  0  0  0
  7  8  1  0  0  0  0
  8  9  1  0  0  0  0
  9 10  1  0  0  0  0
 10 11  1  0  0  0  0
 12 13  1  0  0  0  0
M  END
> <Index>
684

> <PropertyFieldDistance>
nan

$$$$
58729
BBcorina  12272117083D 1   1.00000     0.00000 
CORINA 4.3.0 0026  30.10.2019
 12 12  0  0  0  0  0  0  0  0999 V2000
  -36.3988    2.3517  -46.0049 C   0  0  0  0  0  0  0  0  0  0  0  0
  -36.1146    1.9827  -44.5476 C   0  0  0  0  0  0  0  0  0  0  0  0
  -37.3265    1.2572  -43.9596 C   0  0  0  0  0  0  0  0  0  0  0  0
  -34.8908    1.0667  -44.4827 C   0  0  0  0  0  0  0  0  0  0  0  0
  -34.6180    0.7125  -43.0834 N   0  0  0  0  0  0  0  0  0  0  0  0
  -35.8531    3.2046  -43.7751 N   0  0  0  0  0  0  0  0  0  0  0  0
  -37.0089    4.1098  -43.8150 C   0  0  0  0  0  0  0  0  0  0  0  0
  -36.7588    5.2997  -42.8856 C   0  0  0  0  0  0  0  0  0  0  0  0
  -35.4942    6.0361  -43.3362 C   0  0  0  0  0  0  0  0  0  0  0  0
  -34.3152    5.0590  -43.3322 C   0  0  0  0  0  0  0  0  0  0  0  0
  -34.6361    3.8762  -44.2486 C   0  0  0  0  0  0  0  0  0  0  0  0
  -33.2547   -0.3130  -42.9654 X   0  0  0  0  0  0  0  0  0  0  0  0
  1  2  1  0  0  0  0
  2  3  1  0  0  0  0
  2  4  1  0  0  0  0
  2  6  1  0  0  0  0
  4  5  1  0  0  0  0
  5 12  1  0  0  0  0
  6  7  1  0  0  0  0
  6 11  1  0  0  0  0
  7  8  1  0  0  0  0
  8  9  1  0  0  0  0
  9 10  1  0  0  0  0
 10 11  1  0  0  0  0
M  END
> <Index>
687

> <PropertyFieldDistance>
nan

$$$$
564350
BBcorina  12272117083D 1   1.00000     0.00000 
CORINA 4.3.0 0026  30.10.2019
  8  8  0  0  0  0  0  0  0  0999 V2000
  -34.9728    6.5142  -41.4836 O   0  0  0  0  0  0  0  0  0  0  0  0
  -35.3535    5.8833  -42.7079 C   0  0  0  0  0  0  0  0  0  0  0  0
  -36.6585    5.1099  -42.5008 C   0  0  0  0  0  0  0  0  0  0  0  0
  -37.0291    4.3869  -43.7977 C   0  0  0  0  0  0  0  0  0  0  0  0
  -35.9480    3.4664  -44.1723 N   0  0  0  0  0  0  0  0  0  0  0  0
  -34.6958    4.1916  -44.4226 C   0  0  0  0  0  0  0  0  0  0  0  0
  -34.2559    4.9088  -43.1442 C   0  0  0  0  0  0  0  0  0  0  0  0
  -36.3899    2.5211  -45.5270 X   0  0  0  0  0  0  0  0  0  0  0  0
  1  2  1  0  0  0  0
  2  3  1  0  0  0  0
  2  7  1  0  0  0  0
  3  4  1  0  0  0  0
  4  5  1  0  0  0  0
  5  6  1  0  0  0  0
  5  8  1  0  0  0  0
  6  7  1  0  0  0  0
M  END
> <Index>
690

> <PropertyFieldDistance>
nan

$$$$
58754
BBcorina  12272117083D 1   1.00000     0.00000 
CORINA 4.3.0 0026  30.10.2019
 16 17  0  0  0  0  0  0  0  0999 V2000
  -34.6223    6.6393  -41.6987 C   0  0  0  0  0  0  0  0  0  0  0  0
  -35.2320    5.8743  -42.8752 C   0  0  0  0  0  0  0  0  0  0  0  0
  -36.5217    5.1837  -42.4233 C   0  0  0  0  0  0  0  0  0  0  0  0
  -37.0949    4.3723  -43.5874 C   0  0  0  0  0  0  0  0  0  0  0  0
  -36.1098    3.3735  -44.0215 N   0  0  0  0  0  0  0  0  0  0  0  0
  -34.8804    4.0152  -44.5043 C   0  0  0  0  0  0  0  0  0  0  0  0
  -34.2410    4.8159  -43.3676 C   0  0  0  0  0  0  0  0  0  0  0  0
  -36.6768    2.4850  -45.0448 C   0  0  0  0  0  0  0  0  0  0  0  0
  -35.5609    1.6382  -45.6600 C   0  0  0  0  0  0  0  0  0  0  0  0
  -34.8451    0.9232  -44.5950 N   0  0  0  0  0  0  0  0  0  0  0  0
  -37.3314    3.3120  -46.1213 C   0  0  0  0  0  0  0  0  0  0  0  0
  -38.5558    3.1084  -46.6097 C   0  0  0  0  0  0  0  0  0  0  0  0
  -38.9457    3.9980  -47.5960 C   0  0  0  0  0  0  0  0  0  0  0  0
  -38.0379    4.9239  -47.9085 C   0  0  0  0  0  0  0  0  0  0  0  0
  -36.6005    4.6980  -46.9203 S   0  0  0  0  0  0  0  0  0  0  0  0
  -33.5865   -0.0375  -45.2408 X   0  0  0  0  0  0  0  0  0  0  0  0
  1  2  1  0  0  0  0
  2  3  1  0  0  0  0
  2  7  1  0  0  0  0
  3  4  1  0  0  0  0
  4  5  1  0  0  0  0
  5  6  1  0  0  0  0
  5  8  1  0  0  0  0
  6  7  1  0  0  0  0
  8  9  1  0  0  0  0
  8 11  1  0  0  0  0
  9 10  1  0  0  0  0
 10 16  1  0  0  0  0
 11 12  2  0  0  0  0
 11 15  1  0  0  0  0
 12 13  1  0  0  0  0
 13 14  2  0  0  0  0
 14 15  1  0  0  0  0
M  END
> <Index>
706

> <PropertyFieldDistance>
nan

$$$$
135867
BBcorina  12272117083D 1   1.00000     0.00000 
CORINA 4.3.0 0026  30.10.2019
 14 16  0  0  0  0  0  0  0  0999 V2000
  -32.5691    1.4611  -48.0590 Cl  0  0  0  0  0  0  0  0  0  0  0  0
  -34.3268    1.2834  -47.6994 C   0  0  0  0  0  0  0  0  0  0  0  0
  -34.7186   -0.1931  -47.7868 C   0  0  0  0  0  0  0  0  0  0  0  0
  -36.2102   -0.3439  -47.4815 C   0  0  0  0  0  0  0  0  0  0  0  0
  -37.0227    0.4604  -48.4984 C   0  0  0  0  0  0  0  0  0  0  0  0
  -36.6310    1.9368  -48.4110 C   0  0  0  0  0  0  0  0  0  0  0  0
  -35.1394    2.0877  -48.7162 C   0  0  0  0  0  0  0  0  0  0  0  0
  -34.6143    1.8046  -46.2899 C   0  0  0  0  0  0  0  0  0  0  0  0
  -36.1059    1.6538  -45.9846 C   0  0  0  0  0  0  0  0  0  0  0  0
  -36.3933    2.1751  -44.5753 C   0  0  0  0  0  0  0  0  0  0  0  0
  -36.0172    3.5927  -44.4913 N   0  0  0  0  0  0  0  0  0  0  0  0
  -36.4976    0.1774  -46.0722 C   0  0  0  0  0  0  0  0  0  0  0  0
  -36.9185    2.4581  -47.0014 C   0  0  0  0  0  0  0  0  0  0  0  0
  -36.3230    4.2163  -42.9287 X   0  0  0  0  0  0  0  0  0  0  0  0
  1  2  1  0  0  0  0
  2  3  1  0  0  0  0
  2  7  1  0  0  0  0
  2  8  1  0  0  0  0
  3  4  1  0  0  0  0
  4  5  1  0  0  0  0
  4 12  1  0  0  0  0
  5  6  1  0  0  0  0
  6  7  1  0  0  0  0
  6 13  1  0  0  0  0
  8  9  1  0  0  0  0
  9 10  1  0  0  0  0
  9 12  1  0  0  0  0
  9 13  1  0  0  0  0
 10 11  1  0  0  0  0
 11 14  1  0  0  0  0
M  END
> <Index>
720

> <PropertyFieldDistance>
nan

$$$$
135871
BBcorina  12272117083D 1   1.00000     0.00000 
CORINA 4.3.0 0026  30.10.2019
 12 12  0  0  0  0  0  0  0  0999 V2000
  -37.8157    0.7279  -47.6954 N   0  0  0  0  0  0  0  0  0  0  0  0
  -36.8635    0.7496  -46.5769 C   0  0  0  0  0  0  0  0  0  0  0  0
  -36.8305    2.1505  -45.9625 C   0  0  0  0  0  0  0  0  0  0  0  0
  -35.8388    2.1732  -44.7976 C   0  0  0  0  0  0  0  0  0  0  0  0
  -35.7892    3.5242  -44.2230 N   0  0  0  0  0  0  0  0  0  0  0  0
  -36.9260    3.7825  -43.4517 C   0  0  0  0  0  0  0  0  0  0  0  0
  -37.0045    5.2650  -43.0260 C   0  0  0  0  0  0  0  0  0  0  0  0
  -36.0469    5.5004  -41.8859 C   0  0  0  0  0  0  0  0  0  0  0  0
  -34.6640    5.9861  -42.3641 C   0  0  0  0  0  0  0  0  0  0  0  0
  -34.1903    5.2303  -43.6172 C   0  0  0  0  0  0  0  0  0  0  0  0
  -34.5063    3.7581  -43.5310 C   0  0  0  0  0  0  0  0  0  0  0  0
  -37.8836   -0.8232  -48.4121 X   0  0  0  0  0  0  0  0  0  0  0  0
  1  2  1  0  0  0  0
  1 12  1  0  0  0  0
  2  3  1  0  0  0  0
  3  4  1  0  0  0  0
  4  5  1  0  0  0  0
  5  6  1  0  0  0  0
  5 11  1  0  0  0  0
  6  7  1  0  0  0  0
  7  8  1  0  0  0  0
  8  9  1  0  0  0  0
  9 10  1  0  0  0  0
 10 11  1  0  0  0  0
M  END
> <Index>
732

> <PropertyFieldDistance>
nan

$$$$
4836774
BBcorina  12272117083D 1   1.00000     0.00000 
CORINA 4.3.0 0026  30.10.2019
 16 17  0  0  0  0  0  0  0  0999 V2000
  -35.0217    6.4517  -41.5188 C   0  0  0  0  0  0  0  0  0  0  0  0
  -35.3115    5.5335  -42.6283 N   0  0  0  0  0  0  0  0  0  0  0  0
  -36.5925    4.8440  -42.4204 C   0  0  0  0  0  0  0  0  0  0  0  0
  -36.8957    3.9594  -43.6320 C   0  0  0  0  0  0  0  0  0  0  0  0
  -35.8036    2.9926  -43.8145 N   0  0  0  0  0  0  0  0  0  0  0  0
  -34.5226    3.6821  -44.0225 C   0  0  0  0  0  0  0  0  0  0  0  0
  -34.2198    4.5667  -42.8107 C   0  0  0  0  0  0  0  0  0  0  0  0
  -36.0933    2.0744  -44.9240 C   0  0  0  0  0  0  0  0  0  0  0  0
  -36.6537    2.8656  -46.1076 C   0  0  0  0  0  0  0  0  0  0  0  0
  -35.6782    3.8824  -46.5227 N   0  0  0  0  0  0  0  0  0  0  0  0
  -37.1068    1.0520  -44.4783 C   0  0  0  0  0  0  0  0  0  0  0  0
  -37.0820   -0.2437  -44.7941 C   0  0  0  0  0  0  0  0  0  0  0  0
  -38.1205   -0.9924  -44.2677 C   0  0  0  0  0  0  0  0  0  0  0  0
  -38.9887   -0.3046  -43.5244 C   0  0  0  0  0  0  0  0  0  0  0  0
  -38.4990    1.3833  -43.4558 S   0  0  0  0  0  0  0  0  0  0  0  0
  -36.2661    4.7915  -47.8463 X   0  0  0  0  0  0  0  0  0  0  0  0
  1  2  1  0  0  0  0
  2  3  1  0  0  0  0
  2  7  1  0  0  0  0
  3  4  1  0  0  0  0
  4  5  1  0  0  0  0
  5  6  1  0  0  0  0
  5  8  1  0  0  0  0
  6  7  1  0  0  0  0
  8  9  1  0  0  0  0
  8 11  1  0  0  0  0
  9 10  1  0  0  0  0
 10 16  1  0  0  0  0
 11 12  2  0  0  0  0
 11 15  1  0  0  0  0
 12 13  1  0  0  0  0
 13 14  2  0  0  0  0
 14 15  1  0  0  0  0
M  END
> <Index>
736

> <PropertyFieldDistance>
nan

$$$$
135476
BBcorina  12272117083D 1   1.00000     0.00000 
CORINA 4.3.0 0026  30.10.2019
 11 11  0  0  0  0  0  0  0  0999 V2000
  -36.5691    2.9062  -47.1028 C   0  0  0  0  0  0  0  0  0  0  0  0
  -36.9382    2.0484  -45.8909 C   0  0  0  0  0  0  0  0  0  0  0  0
  -37.0987    0.5909  -46.3276 C   0  0  0  0  0  0  0  0  0  0  0  0
  -35.8307    2.1470  -44.8399 C   0  0  0  0  0  0  0  0  0  0  0  0
  -35.7403    3.5297  -44.3520 N   0  0  0  0  0  0  0  0  0  0  0  0
  -36.8412    3.8350  -43.4277 C   0  0  0  0  0  0  0  0  0  0  0  0
  -36.7569    5.3036  -43.0054 C   0  0  0  0  0  0  0  0  0  0  0  0
  -35.4553    5.5541  -42.3707 N   0  0  0  0  0  0  0  0  0  0  0  0
  -34.3544    5.2487  -43.2949 C   0  0  0  0  0  0  0  0  0  0  0  0
  -34.4388    3.7800  -43.7172 C   0  0  0  0  0  0  0  0  0  0  0  0
  -35.3501    7.1636  -41.8027 X   0  0  0  0  0  0  0  0  0  0  0  0
  1  2  1  0  0  0  0
  2  3  1  0  0  0  0
  2  4  1  0  0  0  0
  4  5  1  0  0  0  0
  5  6  1  0  0  0  0
  5 10  1  0  0  0  0
  6  7  1  0  0  0  0
  7  8  1  0  0  0  0
  8  9  1  0  0  0  0
  8 11  1  0  0  0  0
  9 10  1  0  0  0  0
M  END
> <Index>
743

> <PropertyFieldDistance>
nan

$$$$
58788
BBcorina  12272117083D 1   1.00000     0.00000 
CORINA 4.3.0 0026  30.10.2019
 13 13  0  0  0  0  0  0  0  0999 V2000
  -34.2902   -0.6720  -45.6635 C   0  0  0  0  0  0  0  0  0  0  0  0
  -35.5489    0.0554  -45.1866 C   0  0  0  0  0  0  0  0  0  0  0  0
  -35.2356    1.4507  -44.9353 O   0  0  0  0  0  0  0  0  0  0  0  0
  -36.2420    2.2354  -44.5063 C   0  0  0  0  0  0  0  0  0  0  0  0
  -37.3517    1.7672  -44.3461 O   0  0  0  0  0  0  0  0  0  0  0  0
  -36.0186    3.5405  -44.2544 N   0  0  0  0  0  0  0  0  0  0  0  0
  -37.1066    4.4094  -43.7857 C   0  0  0  0  0  0  0  0  0  0  0  0
  -36.6631    5.1082  -42.4966 C   0  0  0  0  0  0  0  0  0  0  0  0
  -35.3376    5.8366  -42.7497 C   0  0  0  0  0  0  0  0  0  0  0  0
  -34.2623    4.8230  -43.1474 C   0  0  0  0  0  0  0  0  0  0  0  0
  -34.6821    4.1211  -44.4428 C   0  0  0  0  0  0  0  0  0  0  0  0
  -34.9228    6.5352  -41.5258 N   0  0  0  0  0  0  0  0  0  0  0  0
  -34.5978    5.4248  -40.2666 X   0  0  0  0  0  0  0  0  0  0  0  0
  1  2  1  0  0  0  0
  2  3  1  0  0  0  0
  3  4  1  0  0  0  0
  4  5  2  0  0  0  0
  4  6  1  0  0  0  0
  6  7  1  0  0  0  0
  6 11  1  0  0  0  0
  7  8  1  0  0  0  0
  8  9  1  0  0  0  0
  9 10  1  0  0  0  0
  9 12  1  0  0  0  0
 10 11  1  0  0  0  0
 12 13  1  0  0  0  0
M  END
> <Index>
746

> <PropertyFieldDistance>
nan

$$$$
58791
BBcorina  12272117083D 1   1.00000     0.00000 
CORINA 4.3.0 0026  30.10.2019
 11 12  0  0  0  0  0  0  0  0999 V2000
  -35.9473    3.4675  -44.1742 N   0  0  0  0  0  0  0  0  0  0  0  0
  -37.0291    4.3849  -43.7955 C   0  0  0  0  0  0  0  0  0  0  0  0
  -36.6588    5.1132  -42.5008 C   0  0  0  0  0  0  0  0  0  0  0  0
  -35.3556    5.8856  -42.7161 C   0  0  0  0  0  0  0  0  0  0  0  0
  -34.9383    6.5778  -41.4181 C   0  0  0  0  0  0  0  0  0  0  0  0
  -33.6363    7.3478  -41.6524 C   0  0  0  0  0  0  0  0  0  0  0  0
  -32.5381    6.3791  -42.0945 C   0  0  0  0  0  0  0  0  0  0  0  0
  -32.9609    5.6772  -43.3875 C   0  0  0  0  0  0  0  0  0  0  0  0
  -34.2586    4.9063  -43.1435 C   0  0  0  0  0  0  0  0  0  0  0  0
  -34.6935    4.1917  -44.4236 C   0  0  0  0  0  0  0  0  0  0  0  0
  -36.3901    2.5241  -45.5299 X   0  0  0  0  0  0  0  0  0  0  0  0
  1  2  1  0  0  0  0
  1 10  1  0  0  0  0
  1 11  1  0  0  0  0
  2  3  1  0  0  0  0
  3  4  1  0  0  0  0
  4  5  1  0  0  0  0
  4  9  1  0  0  0  0
  5  6  1  0  0  0  0
  6  7  1  0  0  0  0
  7  8  1  0  0  0  0
  8  9  1  0  0  0  0
  9 10  1  0  0  0  0
M  END
> <Index>
749

> <PropertyFieldDistance>
nan

$$$$
138576
BBcorina  12272117083D 1   1.00000     0.00000 
CORINA 4.3.0 0026  30.10.2019
 14 15  0  0  0  0  0  0  0  0999 V2000
  -34.4578    5.3581  -41.5508 N   0  0  0  0  0  0  0  0  0  0  0  0
  -35.1476    5.2292  -42.8413 C   0  0  0  0  0  0  0  0  0  0  0  0
  -36.6484    4.8926  -42.6382 C   0  0  0  0  0  0  0  0  0  0  0  0
  -37.0184    4.1535  -43.9414 C   0  0  0  0  0  0  0  0  0  0  0  0
  -35.7668    3.6251  -44.5143 N   0  0  0  0  0  0  0  0  0  0  0  0
  -35.8465    2.1703  -44.7018 C   0  0  0  0  0  0  0  0  0  0  0  0
  -36.8264    1.8589  -45.8037 C   0  0  0  0  0  0  0  0  0  0  0  0
  -36.3898    1.7709  -47.1123 C   0  0  0  0  0  0  0  0  0  0  0  0
  -37.2886    1.4852  -48.1230 C   0  0  0  0  0  0  0  0  0  0  0  0
  -38.6237    1.2866  -47.8249 C   0  0  0  0  0  0  0  0  0  0  0  0
  -39.0601    1.3737  -46.5161 C   0  0  0  0  0  0  0  0  0  0  0  0
  -38.1607    1.6555  -45.5050 C   0  0  0  0  0  0  0  0  0  0  0  0
  -34.6494    3.9829  -43.6148 C   0  0  0  0  0  0  0  0  0  0  0  0
  -34.3286    6.9988  -41.0862 X   0  0  0  0  0  0  0  0  0  0  0  0
  1  2  1  0  0  0  0
  1 14  1  0  0  0  0
  2  3  1  0  0  0  0
  2 13  1  0  0  0  0
  3  4  1  0  0  0  0
  4  5  1  0  0  0  0
  5  6  1  0  0  0  0
  5 13  1  0  0  0  0
  6  7  1  0  0  0  0
  7  8  2  0  0  0  0
  7 12  1  0  0  0  0
  8  9  1  0  0  0  0
  9 10  2  0  0  0  0
 10 11  1  0  0  0  0
 11 12  2  0  0  0  0
M  END
> <Index>
751

> <PropertyFieldDistance>
nan

$$$$
135475
BBcorina  12272117083D 1   1.00000     0.00000 
CORINA 4.3.0 0026  30.10.2019
 10 10  0  0  0  0  0  0  0  0999 V2000
  -35.7987    1.9261  -46.0673 C   0  0  0  0  0  0  0  0  0  0  0  0
  -36.5188    2.2380  -44.7540 C   0  0  0  0  0  0  0  0  0  0  0  0
  -36.1324    3.5770  -44.2896 N   0  0  0  0  0  0  0  0  0  0  0  0
  -36.9749    4.0081  -43.1668 C   0  0  0  0  0  0  0  0  0  0  0  0
  -36.6430    5.4576  -42.8054 C   0  0  0  0  0  0  0  0  0  0  0  0
  -35.1631    5.5578  -42.4253 C   0  0  0  0  0  0  0  0  0  0  0  0
  -34.3092    5.0575  -43.5937 C   0  0  0  0  0  0  0  0  0  0  0  0
  -34.7087    3.6195  -43.9322 C   0  0  0  0  0  0  0  0  0  0  0  0
  -34.8246    6.9572  -42.1339 N   0  0  0  0  0  0  0  0  0  0  0  0
  -35.2109    7.9694  -43.4569 X   0  0  0  0  0  0  0  0  0  0  0  0
  1  2  1  0  0  0  0
  2  3  1  0  0  0  0
  3  4  1  0  0  0  0
  3  8  1  0  0  0  0
  4  5  1  0  0  0  0
  5  6  1  0  0  0  0
  6  7  1  0  0  0  0
  6  9  1  0  0  0  0
  7  8  1  0  0  0  0
  9 10  1  0  0  0  0
M  END
> <Index>
754

> <PropertyFieldDistance>
nan

$$$$
58809
BBcorina  12272117083D 1   1.00000     0.00000 
CORINA 4.3.0 0026  30.10.2019
 13 14  0  0  0  0  0  0  0  0999 V2000
  -35.5044    5.7062  -42.5565 N   0  0  0  0  0  0  0  0  0  0  0  0
  -36.6844    4.8328  -42.4895 C   0  0  0  0  0  0  0  0  0  0  0  0
  -36.8846    4.1457  -43.8424 C   0  0  0  0  0  0  0  0  0  0  0  0
  -35.6803    3.3742  -44.1800 N   0  0  0  0  0  0  0  0  0  0  0  0
  -35.8623    2.6378  -45.4381 C   0  0  0  0  0  0  0  0  0  0  0  0
  -36.9394    1.5675  -45.2512 C   0  0  0  0  0  0  0  0  0  0  0  0
  -37.1316    0.7828  -46.5636 C   0  0  0  0  0  0  0  0  0  0  0  0
  -36.8342   -0.6859  -46.1746 C   0  0  0  0  0  0  0  0  0  0  0  0
  -37.0422   -0.6635  -44.6389 C   0  0  0  0  0  0  0  0  0  0  0  0
  -36.5242    0.6261  -44.2474 O   0  0  0  0  0  0  0  0  0  0  0  0
  -34.5003    4.2476  -44.2470 C   0  0  0  0  0  0  0  0  0  0  0  0
  -34.3001    4.9347  -42.8941 C   0  0  0  0  0  0  0  0  0  0  0  0
  -35.2925    6.5634  -41.0920 X   0  0  0  0  0  0  0  0  0  0  0  0
  1  2  1  0  0  0  0
  1 12  1  0  0  0  0
  1 13  1  0  0  0  0
  2  3  1  0  0  0  0
  3  4  1  0  0  0  0
  4  5  1  0  0  0  0
  4 11  1  0  0  0  0
  5  6  1  0  0  0  0
  6  7  1  0  0  0  0
  6 10  1  0  0  0  0
  7  8  1  0  0  0  0
  8  9  1  0  0  0  0
  9 10  1  0  0  0  0
 11 12  1  0  0  0  0
M  END
> <Index>
764

> <PropertyFieldDistance>
nan

$$$$
92705
BBcorina  12272117083D 1   1.00000     0.00000 
CORINA 4.3.0 0026  30.10.2019
 14 15  0  0  0  0  0  0  0  0999 V2000
  -32.3924    0.2420  -48.0756 Cl  0  0  0  0  0  0  0  0  0  0  0  0
  -33.6934    0.6856  -47.0153 C   0  0  0  0  0  0  0  0  0  0  0  0
  -34.2029   -0.0902  -46.0557 C   0  0  0  0  0  0  0  0  0  0  0  0
  -35.2396    0.4789  -45.3355 C   0  0  0  0  0  0  0  0  0  0  0  0
  -35.5754    1.7129  -45.7131 C   0  0  0  0  0  0  0  0  0  0  0  0
  -36.6706    2.5427  -45.0944 C   0  0  0  0  0  0  0  0  0  0  0  0
  -36.1182    3.3364  -43.9885 N   0  0  0  0  0  0  0  0  0  0  0  0
  -37.0927    4.3292  -43.5148 C   0  0  0  0  0  0  0  0  0  0  0  0
  -36.5103    5.0792  -42.3144 C   0  0  0  0  0  0  0  0  0  0  0  0
  -35.2517    5.7273  -42.7086 N   0  0  0  0  0  0  0  0  0  0  0  0
  -34.2773    4.7344  -43.1823 C   0  0  0  0  0  0  0  0  0  0  0  0
  -34.8596    3.9845  -44.3827 C   0  0  0  0  0  0  0  0  0  0  0  0
  -34.5426    2.2256  -47.0413 S   0  0  0  0  0  0  0  0  0  0  0  0
  -34.6087    6.6511  -41.4212 X   0  0  0  0  0  0  0  0  0  0  0  0
  1  2  1  0  0  0  0
  2  3  2  0  0  0  0
  2 13  1  0  0  0  0
  3  4  1  0  0  0  0
  4  5  2  0  0  0  0
  5  6  1  0  0  0  0
  5 13  1  0  0  0  0
  6  7  1  0  0  0  0
  7  8  1  0  0  0  0
  7 12  1  0  0  0  0
  8  9  1  0  0  0  0
  9 10  1  0  0  0  0
 10 11  1  0  0  0  0
 10 14  1  0  0  0  0
 11 12  1  0  0  0  0
M  END
> <Index>
805

> <PropertyFieldDistance>
nan

$$$$
92712
BBcorina  12272117083D 1   1.00000     0.00000 
CORINA 4.3.0 0026  30.10.2019
 14 15  0  0  0  0  0  0  0  0999 V2000
  -32.2771    0.2017  -48.1709 Br  0  0  0  0  0  0  0  0  0  0  0  0
  -33.6938    0.6852  -47.0156 C   0  0  0  0  0  0  0  0  0  0  0  0
  -34.2032   -0.0903  -46.0560 C   0  0  0  0  0  0  0  0  0  0  0  0
  -35.2395    0.4788  -45.3355 C   0  0  0  0  0  0  0  0  0  0  0  0
  -35.5753    1.7129  -45.7131 C   0  0  0  0  0  0  0  0  0  0  0  0
  -36.6706    2.5428  -45.0944 C   0  0  0  0  0  0  0  0  0  0  0  0
  -36.1182    3.3364  -43.9885 N   0  0  0  0  0  0  0  0  0  0  0  0
  -37.0927    4.3292  -43.5148 C   0  0  0  0  0  0  0  0  0  0  0  0
  -36.5104    5.0791  -42.3144 C   0  0  0  0  0  0  0  0  0  0  0  0
  -35.2516    5.7272  -42.7086 N   0  0  0  0  0  0  0  0  0  0  0  0
  -34.2773    4.7344  -43.1823 C   0  0  0  0  0  0  0  0  0  0  0  0
  -34.8596    3.9845  -44.3827 C   0  0  0  0  0  0  0  0  0  0  0  0
  -34.5429    2.2254  -47.0416 S   0  0  0  0  0  0  0  0  0  0  0  0
  -34.6087    6.6511  -41.4213 X   0  0  0  0  0  0  0  0  0  0  0  0
  1  2  1  0  0  0  0
  2  3  2  0  0  0  0
  2 13  1  0  0  0  0
  3  4  1  0  0  0  0
  4  5  2  0  0  0  0
  5  6  1  0  0  0  0
  5 13  1  0  0  0  0
  6  7  1  0  0  0  0
  7  8  1  0  0  0  0
  7 12  1  0  0  0  0
  8  9  1  0  0  0  0
  9 10  1  0  0  0  0
 10 11  1  0  0  0  0
 10 14  1  0  0  0  0
 11 12  1  0  0  0  0
M  END
> <Index>
807

> <PropertyFieldDistance>
nan

$$$$
107223
BBcorina  12272117083D 1   1.00000     0.00000 
CORINA 4.3.0 0026  30.10.2019
 16 17  0  0  0  0  0  0  0  0999 V2000
  -35.5907    1.7977  -45.8685 C   0  0  0  0  0  0  0  0  0  0  0  0
  -36.6859    2.6467  -45.2200 C   0  0  0  0  0  0  0  0  0  0  0  0
  -36.1520    3.2987  -44.0167 N   0  0  0  0  0  0  0  0  0  0  0  0
  -37.0927    4.3027  -43.5004 C   0  0  0  0  0  0  0  0  0  0  0  0
  -36.5368    4.9006  -42.2058 C   0  0  0  0  0  0  0  0  0  0  0  0
  -35.2227    5.5021  -42.4717 N   0  0  0  0  0  0  0  0  0  0  0  0
  -34.2819    4.4980  -42.9881 C   0  0  0  0  0  0  0  0  0  0  0  0
  -34.8378    3.9002  -44.2826 C   0  0  0  0  0  0  0  0  0  0  0  0
  -34.7139    6.1234  -41.3249 C   0  0  0  0  0  0  0  0  0  0  0  0
  -33.4774    6.7538  -41.3675 C   0  0  0  0  0  0  0  0  0  0  0  0
  -32.9753    7.3663  -40.2363 C   0  0  0  0  0  0  0  0  0  0  0  0
  -33.7071    7.3521  -39.0562 C   0  0  0  0  0  0  0  0  0  0  0  0
  -33.1979    7.9725  -37.9092 N   0  0  0  0  0  0  0  0  0  0  0  0
  -34.9438    6.7219  -39.0138 C   0  0  0  0  0  0  0  0  0  0  0  0
  -35.4483    6.1141  -40.1465 C   0  0  0  0  0  0  0  0  0  0  0  0
  -31.6747    8.7480  -37.9613 X   0  0  0  0  0  0  0  0  0  0  0  0
  1  2  1  0  0  0  0
  2  3  1  0  0  0  0
  3  4  1  0  0  0  0
  3  8  1  0  0  0  0
  4  5  1  0  0  0  0
  5  6  1  0  0  0  0
  6  7  1  0  0  0  0
  6  9  1  0  0  0  0
  7  8  1  0  0  0  0
  9 10  2  0  0  0  0
  9 15  1  0  0  0  0
 10 11  1  0  0  0  0
 11 12  2  0  0  0  0
 12 13  1  0  0  0  0
 12 14  1  0  0  0  0
 13 16  1  0  0  0  0
 14 15  2  0  0  0  0
M  END
> <Index>
820

> <PropertyFieldDistance>
nan

$$$$
93541
BBcorina  12272117083D 1   1.00000     0.00000 
CORINA 4.3.0 0026  30.10.2019
 15 16  0  0  0  0  0  0  0  0999 V2000
  -36.4279    2.6263  -45.2585 C   0  0  0  0  0  0  0  0  0  0  0  0
  -35.9862    3.2985  -44.0293 N   0  0  0  0  0  0  0  0  0  0  0  0
  -37.0076    4.2385  -43.5469 C   0  0  0  0  0  0  0  0  0  0  0  0
  -36.5443    4.8573  -42.2260 C   0  0  0  0  0  0  0  0  0  0  0  0
  -35.2596    5.5403  -42.4319 N   0  0  0  0  0  0  0  0  0  0  0  0
  -34.2381    4.6004  -42.9143 C   0  0  0  0  0  0  0  0  0  0  0  0
  -34.7014    3.9816  -44.2353 C   0  0  0  0  0  0  0  0  0  0  0  0
  -34.8385    6.1810  -41.2605 C   0  0  0  0  0  0  0  0  0  0  0  0
  -33.6423    6.8862  -41.2464 C   0  0  0  0  0  0  0  0  0  0  0  0
  -33.2272    7.5186  -40.0910 C   0  0  0  0  0  0  0  0  0  0  0  0
  -34.0062    7.4497  -38.9436 C   0  0  0  0  0  0  0  0  0  0  0  0
  -33.5857    8.0912  -37.7724 N   0  0  0  0  0  0  0  0  0  0  0  0
  -35.1995    6.7397  -38.9561 C   0  0  0  0  0  0  0  0  0  0  0  0
  -35.6173    6.1117  -40.1129 C   0  0  0  0  0  0  0  0  0  0  0  0
  -32.1092    8.9536  -37.7530 X   0  0  0  0  0  0  0  0  0  0  0  0
  1  2  1  0  0  0  0
  2  3  1  0  0  0  0
  2  7  1  0  0  0  0
  3  4  1  0  0  0  0
  4  5  1  0  0  0  0
  5  6  1  0  0  0  0
  5  8  1  0  0  0  0
  6  7  1  0  0  0  0
  8  9  2  0  0  0  0
  8 14  1  0  0  0  0
  9 10  1  0  0  0  0
 10 11  2  0  0  0  0
 11 12  1  0  0  0  0
 11 13  1  0  0  0  0
 12 15  1  0  0  0  0
 13 14  2  0  0  0  0
M  END
> <Index>
824

> <PropertyFieldDistance>
nan

$$$$
130774
BBcorina  12272117083D 1   1.00000     0.00000 
CORINA 4.3.0 0026  30.10.2019
 14 15  0  0  0  0  0  0  0  0999 V2000
  -35.2517    5.7273  -42.7086 N   0  0  0  0  0  0  0  0  0  0  0  0
  -36.5103    5.0791  -42.3144 C   0  0  0  0  0  0  0  0  0  0  0  0
  -37.0927    4.3292  -43.5148 C   0  0  0  0  0  0  0  0  0  0  0  0
  -36.1182    3.3364  -43.9885 N   0  0  0  0  0  0  0  0  0  0  0  0
  -36.6706    2.5427  -45.0944 C   0  0  0  0  0  0  0  0  0  0  0  0
  -35.5753    1.7129  -45.7132 C   0  0  0  0  0  0  0  0  0  0  0  0
  -35.3029    0.4359  -45.2470 C   0  0  0  0  0  0  0  0  0  0  0  0
  -34.2906   -0.2954  -45.8389 C   0  0  0  0  0  0  0  0  0  0  0  0
  -33.5880    0.2084  -46.8346 N   0  0  0  0  0  0  0  0  0  0  0  0
  -33.8193    1.4189  -47.3036 C   0  0  0  0  0  0  0  0  0  0  0  0
  -34.8157    2.2085  -46.7619 C   0  0  0  0  0  0  0  0  0  0  0  0
  -34.8596    3.9845  -44.3827 C   0  0  0  0  0  0  0  0  0  0  0  0
  -34.2772    4.7344  -43.1823 C   0  0  0  0  0  0  0  0  0  0  0  0
  -34.6087    6.6511  -41.4212 X   0  0  0  0  0  0  0  0  0  0  0  0
  1  2  1  0  0  0  0
  1 13  1  0  0  0  0
  1 14  1  0  0  0  0
  2  3  1  0  0  0  0
  3  4  1  0  0  0  0
  4  5  1  0  0  0  0
  4 12  1  0  0  0  0
  5  6  1  0  0  0  0
  6  7  2  0  0  0  0
  6 11  1  0  0  0  0
  7  8  1  0  0  0  0
  8  9  2  0  0  0  0
  9 10  1  0  0  0  0
 10 11  2  0  0  0  0
 12 13  1  0  0  0  0
M  END
> <Index>
834

> <PropertyFieldDistance>
nan

$$$$
138646
BBcorina  12272117083D 1   1.00000     0.00000 
CORINA 4.3.0 0026  30.10.2019
 14 15  0  0  0  0  0  0  0  0999 V2000
  -35.2497    5.7277  -42.7076 N   0  0  0  0  0  0  0  0  0  0  0  0
  -36.5085    5.0811  -42.3116 C   0  0  0  0  0  0  0  0  0  0  0  0
  -37.0937    4.3323  -43.5114 C   0  0  0  0  0  0  0  0  0  0  0  0
  -36.1213    3.3384  -43.9870 N   0  0  0  0  0  0  0  0  0  0  0  0
  -36.6763    2.5459  -45.0923 C   0  0  0  0  0  0  0  0  0  0  0  0
  -35.5665    1.7022  -45.7226 C   0  0  0  0  0  0  0  0  0  0  0  0
  -36.1216    0.9097  -46.8279 N   0  0  0  0  0  0  0  0  0  0  0  0
  -35.0483    0.2682  -47.6092 C   0  0  0  0  0  0  0  0  0  0  0  0
  -35.3233   -1.2502  -47.6030 C   0  0  0  0  0  0  0  0  0  0  0  0
  -36.8428   -1.3290  -47.3002 C   0  0  0  0  0  0  0  0  0  0  0  0
  -37.0288   -0.1424  -46.3221 C   0  0  0  0  0  0  0  0  0  0  0  0
  -34.8625    3.9851  -44.3830 C   0  0  0  0  0  0  0  0  0  0  0  0
  -34.2773    4.7339  -43.1833 C   0  0  0  0  0  0  0  0  0  0  0  0
  -34.6035    6.6503  -41.4211 X   0  0  0  0  0  0  0  0  0  0  0  0
  1  2  1  0  0  0  0
  1 13  1  0  0  0  0
  1 14  1  0  0  0  0
  2  3  1  0  0  0  0
  3  4  1  0  0  0  0
  4  5  1  0  0  0  0
  4 12  1  0  0  0  0
  5  6  1  0  0  0  0
  6  7  1  0  0  0  0
  7  8  1  0  0  0  0
  7 11  1  0  0  0  0
  8  9  1  0  0  0  0
  9 10  1  0  0  0  0
 10 11  1  0  0  0  0
 12 13  1  0  0  0  0
M  END
> <Index>
850

> <PropertyFieldDistance>
nan

$$$$
102927
BBcorina  12272117083D 1   1.00000     0.00000 
CORINA 4.3.0 0026  30.10.2019
 14 14  0  0  0  0  0  0  0  0999 V2000
  -33.8804   -0.1006  -47.5863 C   0  0  0  0  0  0  0  0  0  0  0  0
  -35.2725    0.4492  -47.9034 C   0  0  0  0  0  0  0  0  0  0  0  0
  -36.0637   -0.5927  -48.6969 C   0  0  0  0  0  0  0  0  0  0  0  0
  -35.9758    0.7485  -46.6536 N   0  0  0  0  0  0  0  0  0  0  0  0
  -35.7881    1.9349  -46.0422 C   0  0  0  0  0  0  0  0  0  0  0  0
  -35.0370    2.7546  -46.5267 O   0  0  0  0  0  0  0  0  0  0  0  0
  -36.5115    2.2427  -44.7565 C   0  0  0  0  0  0  0  0  0  0  0  0
  -36.1399    3.5871  -44.2955 N   0  0  0  0  0  0  0  0  0  0  0  0
  -36.9965    4.0172  -43.1815 C   0  0  0  0  0  0  0  0  0  0  0  0
  -36.6309    5.4493  -42.7840 C   0  0  0  0  0  0  0  0  0  0  0  0
  -35.2122    5.5026  -42.4046 N   0  0  0  0  0  0  0  0  0  0  0  0
  -34.3556    5.0724  -43.5184 C   0  0  0  0  0  0  0  0  0  0  0  0
  -34.7212    3.6403  -43.9160 C   0  0  0  0  0  0  0  0  0  0  0  0
  -34.7797    7.0674  -41.8678 X   0  0  0  0  0  0  0  0  0  0  0  0
  1  2  1  0  0  0  0
  2  3  1  0  0  0  0
  2  4  1  0  0  0  0
  4  5  1  0  0  0  0
  5  6  2  0  0  0  0
  5  7  1  0  0  0  0
  7  8  1  0  0  0  0
  8  9  1  0  0  0  0
  8 13  1  0  0  0  0
  9 10  1  0  0  0  0
 10 11  1  0  0  0  0
 11 12  1  0  0  0  0
 11 14  1  0  0  0  0
 12 13  1  0  0  0  0
M  END
> <Index>
870

> <PropertyFieldDistance>
nan

$$$$
564358
BBcorina  12272117083D 1   1.00000     0.00000 
CORINA 4.3.0 0026  30.10.2019
 12 12  0  0  0  0  0  0  0  0999 V2000
  -36.5165    0.6619  -44.1345 O   0  0  0  0  0  0  0  0  0  0  0  0
  -36.9117    1.5126  -45.2125 C   0  0  0  0  0  0  0  0  0  0  0  0
  -37.0592    0.6826  -46.4894 C   0  0  0  0  0  0  0  0  0  0  0  0
  -38.1609   -0.2753  -46.3261 N   0  0  0  0  0  0  0  0  0  0  0  0
  -35.8491    2.5924  -45.4260 C   0  0  0  0  0  0  0  0  0  0  0  0
  -35.7047    3.3869  -44.1989 N   0  0  0  0  0  0  0  0  0  0  0  0
  -36.9290    4.1512  -43.9189 C   0  0  0  0  0  0  0  0  0  0  0  0
  -36.7573    4.9159  -42.6038 C   0  0  0  0  0  0  0  0  0  0  0  0
  -35.6034    5.7558  -42.6937 O   0  0  0  0  0  0  0  0  0  0  0  0
  -34.3929    5.0441  -42.9650 C   0  0  0  0  0  0  0  0  0  0  0  0
  -34.5406    4.2808  -44.2838 C   0  0  0  0  0  0  0  0  0  0  0  0
  -38.3605   -1.2254  -47.7338 X   0  0  0  0  0  0  0  0  0  0  0  0
  1  2  1  0  0  0  0
  2  3  1  0  0  0  0
  2  5  1  0  0  0  0
  3  4  1  0  0  0  0
  4 12  1  0  0  0  0
  5  6  1  0  0  0  0
  6  7  1  0  0  0  0
  6 11  1  0  0  0  0
  7  8  1  0  0  0  0
  8  9  1  0  0  0  0
  9 10  1  0  0  0  0
 10 11  1  0  0  0  0
M  END
> <Index>
875

> <PropertyFieldDistance>
nan

$$$$
103199
BBcorina  12272117083D 1   1.00000     0.00000 
CORINA 4.3.0 0026  30.10.2019
 13 14  0  0  0  0  0  0  0  0999 V2000
  -35.2517    5.7272  -42.7086 N   0  0  0  0  0  0  0  0  0  0  0  0
  -36.5104    5.0792  -42.3144 C   0  0  0  0  0  0  0  0  0  0  0  0
  -37.0926    4.3292  -43.5148 C   0  0  0  0  0  0  0  0  0  0  0  0
  -36.1182    3.3364  -43.9885 N   0  0  0  0  0  0  0  0  0  0  0  0
  -36.6706    2.5428  -45.0944 C   0  0  0  0  0  0  0  0  0  0  0  0
  -35.5753    1.7129  -45.7132 C   0  0  0  0  0  0  0  0  0  0  0  0
  -35.2393    0.4785  -45.3356 C   0  0  0  0  0  0  0  0  0  0  0  0
  -34.1992   -0.0878  -46.0524 C   0  0  0  0  0  0  0  0  0  0  0  0
  -33.6906    0.6867  -47.0119 C   0  0  0  0  0  0  0  0  0  0  0  0
  -34.5451    2.2237  -47.0440 S   0  0  0  0  0  0  0  0  0  0  0  0
  -34.8596    3.9845  -44.3827 C   0  0  0  0  0  0  0  0  0  0  0  0
  -34.2773    4.7344  -43.1823 C   0  0  0  0  0  0  0  0  0  0  0  0
  -34.6088    6.6511  -41.4212 X   0  0  0  0  0  0  0  0  0  0  0  0
  1  2  1  0  0  0  0
  1 12  1  0  0  0  0
  1 13  1  0  0  0  0
  2  3  1  0  0  0  0
  3  4  1  0  0  0  0
  4  5  1  0  0  0  0
  4 11  1  0  0  0  0
  5  6  1  0  0  0  0
  6  7  2  0  0  0  0
  6 10  1  0  0  0  0
  7  8  1  0  0  0  0
  8  9  2  0  0  0  0
  9 10  1  0  0  0  0
 11 12  1  0  0  0  0
M  END
> <Index>
878

> <PropertyFieldDistance>
nan

$$$$
104160
BBcorina  12272117083D 1   1.00000     0.00000 
CORINA 4.3.0 0026  30.10.2019
 14 14  0  0  0  0  0  0  0  0999 V2000
  -39.7667   -1.9013  -47.2736 C   0  0  0  0  0  0  0  0  0  0  0  0
  -38.6937   -0.8276  -47.4656 C   0  0  0  0  0  0  0  0  0  0  0  0
  -38.3838   -0.1699  -46.1194 C   0  0  0  0  0  0  0  0  0  0  0  0
  -37.3564    0.8581  -46.3031 N   0  0  0  0  0  0  0  0  0  0  0  0
  -36.9265    1.5774  -45.2475 C   0  0  0  0  0  0  0  0  0  0  0  0
  -37.3901    1.3736  -44.1455 O   0  0  0  0  0  0  0  0  0  0  0  0
  -35.8696    2.6350  -45.4365 C   0  0  0  0  0  0  0  0  0  0  0  0
  -35.6844    3.3723  -44.1796 N   0  0  0  0  0  0  0  0  0  0  0  0
  -36.8869    4.1460  -43.8407 C   0  0  0  0  0  0  0  0  0  0  0  0
  -36.6834    4.8341  -42.4888 C   0  0  0  0  0  0  0  0  0  0  0  0
  -35.5023    5.7058  -42.5587 N   0  0  0  0  0  0  0  0  0  0  0  0
  -34.2996    4.9320  -42.8976 C   0  0  0  0  0  0  0  0  0  0  0  0
  -34.5032    4.2439  -44.2494 C   0  0  0  0  0  0  0  0  0  0  0  0
  -35.2865    6.5640  -41.0955 X   0  0  0  0  0  0  0  0  0  0  0  0
  1  2  1  0  0  0  0
  2  3  1  0  0  0  0
  3  4  1  0  0  0  0
  4  5  1  0  0  0  0
  5  6  2  0  0  0  0
  5  7  1  0  0  0  0
  7  8  1  0  0  0  0
  8  9  1  0  0  0  0
  8 13  1  0  0  0  0
  9 10  1  0  0  0  0
 10 11  1  0  0  0  0
 11 12  1  0  0  0  0
 11 14  1  0  0  0  0
 12 13  1  0  0  0  0
M  END
> <Index>
886

> <PropertyFieldDistance>
nan

$$$$
135479
BBcorina  12272117083D 1   1.00000     0.00000 
CORINA 4.3.0 0026  30.10.2019
  9  9  0  0  0  0  0  0  0  0999 V2000
  -36.1815    0.2428  -46.0264 N   0  0  0  0  0  0  0  0  0  0  0  0
  -35.7643    1.6392  -45.8420 C   0  0  0  0  0  0  0  0  0  0  0  0
  -36.5974    2.2775  -44.7288 C   0  0  0  0  0  0  0  0  0  0  0  0
  -36.1803    3.6739  -44.5443 N   0  0  0  0  0  0  0  0  0  0  0  0
  -37.1113    4.3902  -43.6533 C   0  0  0  0  0  0  0  0  0  0  0  0
  -36.2803    4.9534  -42.4812 C   0  0  0  0  0  0  0  0  0  0  0  0
  -34.8448    5.0110  -43.0665 C   0  0  0  0  0  0  0  0  0  0  0  0
  -34.8223    3.7491  -43.9648 C   0  0  0  0  0  0  0  0  0  0  0  0
  -35.2732   -0.5097  -47.2645 X   0  0  0  0  0  0  0  0  0  0  0  0
  1  2  1  0  0  0  0
  1  9  1  0  0  0  0
  2  3  1  0  0  0  0
  3  4  1  0  0  0  0
  4  5  1  0  0  0  0
  4  8  1  0  0  0  0
  5  6  1  0  0  0  0
  6  7  1  0  0  0  0
  7  8  1  0  0  0  0
M  END
> <Index>
894

> <PropertyFieldDistance>
nan

$$$$
135878
BBcorina  12272117083D 1   1.00000     0.00000 
CORINA 4.3.0 0026  30.10.2019
 13 13  0  0  0  0  0  0  0  0999 V2000
  -37.0723    0.5421  -46.3001 C   0  0  0  0  0  0  0  0  0  0  0  0
  -36.9142    2.0114  -45.9037 C   0  0  0  0  0  0  0  0  0  0  0  0
  -36.5195    2.8317  -47.1334 C   0  0  0  0  0  0  0  0  0  0  0  0
  -35.8259    2.1374  -44.8358 C   0  0  0  0  0  0  0  0  0  0  0  0
  -35.7602    3.5274  -44.3651 N   0  0  0  0  0  0  0  0  0  0  0  0
  -36.8804    3.8316  -43.4630 C   0  0  0  0  0  0  0  0  0  0  0  0
  -36.8069    5.3026  -43.0449 C   0  0  0  0  0  0  0  0  0  0  0  0
  -35.5377    5.5573  -42.4370 O   0  0  0  0  0  0  0  0  0  0  0  0
  -34.4243    5.2723  -43.2879 C   0  0  0  0  0  0  0  0  0  0  0  0
  -33.1216    5.5455  -42.5335 C   0  0  0  0  0  0  0  0  0  0  0  0
  -33.0779    6.9563  -42.1266 N   0  0  0  0  0  0  0  0  0  0  0  0
  -34.4736    3.8011  -43.7085 C   0  0  0  0  0  0  0  0  0  0  0  0
  -31.6348    7.3051  -41.2781 X   0  0  0  0  0  0  0  0  0  0  0  0
  1  2  1  0  0  0  0
  2  3  1  0  0  0  0
  2  4  1  0  0  0  0
  4  5  1  0  0  0  0
  5  6  1  0  0  0  0
  5 12  1  0  0  0  0
  6  7  1  0  0  0  0
  7  8  1  0  0  0  0
  8  9  1  0  0  0  0
  9 10  1  0  0  0  0
  9 12  1  0  0  0  0
 10 11  1  0  0  0  0
 11 13  1  0  0  0  0
M  END
> <Index>
903

> <PropertyFieldDistance>
nan

$$$$
115493
BBcorina  12272117083D 1   1.00000     0.00000 
CORINA 4.3.0 0026  30.10.2019
 12 12  0  0  0  0  0  0  0  0999 V2000
  -38.3732    3.6636  -43.1369 C   0  0  0  0  0  0  0  0  0  0  0  0
  -37.0947    4.3727  -43.5877 C   0  0  0  0  0  0  0  0  0  0  0  0
  -36.5217    5.1812  -42.4215 C   0  0  0  0  0  0  0  0  0  0  0  0
  -35.2317    5.8728  -42.8712 C   0  0  0  0  0  0  0  0  0  0  0  0
  -34.2408    4.8156  -43.3658 C   0  0  0  0  0  0  0  0  0  0  0  0
  -34.8799    4.0177  -44.5048 C   0  0  0  0  0  0  0  0  0  0  0  0
  -36.1096    3.3749  -44.0239 N   0  0  0  0  0  0  0  0  0  0  0  0
  -36.6762    2.4890  -45.0496 C   0  0  0  0  0  0  0  0  0  0  0  0
  -35.5626    1.6328  -45.6558 C   0  0  0  0  0  0  0  0  0  0  0  0
  -36.1529    0.7102  -46.7241 C   0  0  0  0  0  0  0  0  0  0  0  0
  -35.0836   -0.1120  -47.3061 N   0  0  0  0  0  0  0  0  0  0  0  0
  -35.7016   -1.1602  -48.5075 X   0  0  0  0  0  0  0  0  0  0  0  0
  1  2  1  0  0  0  0
  2  3  1  0  0  0  0
  2  7  1  0  0  0  0
  3  4  1  0  0  0  0
  4  5  1  0  0  0  0
  5  6  1  0  0  0  0
  6  7  1  0  0  0  0
  7  8  1  0  0  0  0
  8  9  1  0  0  0  0
  9 10  1  0  0  0  0
 10 11  1  0  0  0  0
 11 12  1  0  0  0  0
M  END
> <Index>
918

> <PropertyFieldDistance>
nan

$$$$
115718
BBcorina  12272117083D 1   1.00000     0.00000 
CORINA 4.3.0 0026  30.10.2019
 14 15  0  0  0  0  0  0  0  0999 V2000
  -36.0087    3.6127  -44.3879 N   0  0  0  0  0  0  0  0  0  0  0  0
  -37.0096    4.4890  -43.7635 C   0  0  0  0  0  0  0  0  0  0  0  0
  -36.5702    4.8249  -42.3363 C   0  0  0  0  0  0  0  0  0  0  0  0
  -35.2533    5.4763  -42.3725 N   0  0  0  0  0  0  0  0  0  0  0  0
  -34.2525    4.6000  -42.9970 C   0  0  0  0  0  0  0  0  0  0  0  0
  -34.6918    4.2640  -44.4241 C   0  0  0  0  0  0  0  0  0  0  0  0
  -34.8301    5.8830  -41.0259 C   0  0  0  0  0  0  0  0  0  0  0  0
  -35.7720    6.9800  -40.4998 C   0  0  0  0  0  0  0  0  0  0  0  0
  -35.0879    7.5898  -39.2491 C   0  0  0  0  0  0  0  0  0  0  0  0
  -33.3393    7.7314  -39.7803 S   0  0  0  0  0  0  0  0  0  0  0  0
  -33.1312    9.0021  -40.3813 O   0  0  0  0  0  0  0  0  0  0  0  0
  -32.4904    7.2997  -38.7256 O   0  0  0  0  0  0  0  0  0  0  0  0
  -33.3964    6.4472  -41.0815 C   0  0  0  0  0  0  0  0  0  0  0  0
  -36.5014    3.1392  -45.9555 X   0  0  0  0  0  0  0  0  0  0  0  0
  1  2  1  0  0  0  0
  1  6  1  0  0  0  0
  1 14  1  0  0  0  0
  2  3  1  0  0  0  0
  3  4  1  0  0  0  0
  4  5  1  0  0  0  0
  4  7  1  0  0  0  0
  5  6  1  0  0  0  0
  7  8  1  0  0  0  0
  7 13  1  0  0  0  0
  8  9  1  0  0  0  0
  9 10  1  0  0  0  0
 10 11  2  0  0  0  0
 10 12  2  0  0  0  0
 10 13  1  0  0  0  0
M  END
> <Index>
924

> <PropertyFieldDistance>
nan

$$$$
117684
BBcorina  12272117083D 1   1.00000     0.00000 
CORINA 4.3.0 0026  30.10.2019
 11 11  0  0  0  0  0  0  0  0999 V2000
  -35.5732    1.5589  -45.5286 C   0  0  0  0  0  0  0  0  0  0  0  0
  -36.5662    2.4371  -44.8117 C   0  0  0  0  0  0  0  0  0  0  0  0
  -37.6963    2.0418  -44.6179 O   0  0  0  0  0  0  0  0  0  0  0  0
  -36.1967    3.6595  -44.3808 N   0  0  0  0  0  0  0  0  0  0  0  0
  -37.1517    4.5247  -43.6750 C   0  0  0  0  0  0  0  0  0  0  0  0
  -36.5313    4.9611  -42.3440 C   0  0  0  0  0  0  0  0  0  0  0  0
  -35.1711    5.6108  -42.6085 C   0  0  0  0  0  0  0  0  0  0  0  0
  -34.2368    4.5926  -43.2662 C   0  0  0  0  0  0  0  0  0  0  0  0
  -34.8295    4.1499  -44.6027 C   0  0  0  0  0  0  0  0  0  0  0  0
  -34.5879    6.0601  -41.3373 N   0  0  0  0  0  0  0  0  0  0  0  0
  -34.2679    4.7333  -40.3071 X   0  0  0  0  0  0  0  0  0  0  0  0
  1  2  1  0  0  0  0
  2  3  2  0  0  0  0
  2  4  1  0  0  0  0
  4  5  1  0  0  0  0
  4  9  1  0  0  0  0
  5  6  1  0  0  0  0
  6  7  1  0  0  0  0
  7  8  1  0  0  0  0
  7 10  1  0  0  0  0
  8  9  1  0  0  0  0
 10 11  1  0  0  0  0
M  END
> <Index>
938

> <PropertyFieldDistance>
nan

$$$$
117439
BBcorina  12272117083D 1   1.00000     0.00000 
CORINA 4.3.0 0026  30.10.2019
 14 15  0  0  0  0  0  0  0  0999 V2000
  -33.4680   -1.2184  -46.3208 C   0  0  0  0  0  0  0  0  0  0  0  0
  -34.2103    0.0894  -46.2233 C   0  0  0  0  0  0  0  0  0  0  0  0
  -35.2550    0.3701  -45.4081 C   0  0  0  0  0  0  0  0  0  0  0  0
  -35.5754    1.7129  -45.7131 C   0  0  0  0  0  0  0  0  0  0  0  0
  -36.6706    2.5427  -45.0944 C   0  0  0  0  0  0  0  0  0  0  0  0
  -36.1183    3.3364  -43.9885 N   0  0  0  0  0  0  0  0  0  0  0  0
  -37.0927    4.3292  -43.5148 C   0  0  0  0  0  0  0  0  0  0  0  0
  -36.5103    5.0791  -42.3144 C   0  0  0  0  0  0  0  0  0  0  0  0
  -35.2517    5.7273  -42.7086 N   0  0  0  0  0  0  0  0  0  0  0  0
  -34.2773    4.7344  -43.1823 C   0  0  0  0  0  0  0  0  0  0  0  0
  -34.8596    3.9845  -44.3827 C   0  0  0  0  0  0  0  0  0  0  0  0
  -34.7365    2.0906  -46.6342 N   0  0  0  0  0  0  0  0  0  0  0  0
  -33.9709    1.2028  -46.9303 O   0  0  0  0  0  0  0  0  0  0  0  0
  -34.6088    6.6511  -41.4213 X   0  0  0  0  0  0  0  0  0  0  0  0
  1  2  1  0  0  0  0
  2  3  2  0  0  0  0
  2 13  1  0  0  0  0
  3  4  1  0  0  0  0
  4  5  1  0  0  0  0
  4 12  2  0  0  0  0
  5  6  1  0  0  0  0
  6  7  1  0  0  0  0
  6 11  1  0  0  0  0
  7  8  1  0  0  0  0
  8  9  1  0  0  0  0
  9 10  1  0  0  0  0
  9 14  1  0  0  0  0
 10 11  1  0  0  0  0
 12 13  1  0  0  0  0
M  END
> <Index>
940

> <PropertyFieldDistance>
nan

$$$$
117766
BBcorina  12272117083D 1   1.00000     0.00000 
CORINA 4.3.0 0026  30.10.2019
 14 15  0  0  0  0  0  0  0  0999 V2000
  -35.5022    5.7057  -42.5586 N   0  0  0  0  0  0  0  0  0  0  0  0
  -36.6834    4.8342  -42.4888 C   0  0  0  0  0  0  0  0  0  0  0  0
  -36.8869    4.1460  -43.8407 C   0  0  0  0  0  0  0  0  0  0  0  0
  -35.6843    3.3723  -44.1796 N   0  0  0  0  0  0  0  0  0  0  0  0
  -35.8696    2.6350  -45.4365 C   0  0  0  0  0  0  0  0  0  0  0  0
  -36.9264    1.5774  -45.2475 C   0  0  0  0  0  0  0  0  0  0  0  0
  -37.3901    1.3737  -44.1455 O   0  0  0  0  0  0  0  0  0  0  0  0
  -37.3604    0.8620  -46.3041 N   0  0  0  0  0  0  0  0  0  0  0  0
  -38.3921   -0.1620  -46.1214 C   0  0  0  0  0  0  0  0  0  0  0  0
  -39.2521   -0.5225  -47.3343 C   0  0  0  0  0  0  0  0  0  0  0  0
  -38.1900   -1.5028  -46.8300 C   0  0  0  0  0  0  0  0  0  0  0  0
  -34.5032    4.2439  -44.2495 C   0  0  0  0  0  0  0  0  0  0  0  0
  -34.2997    4.9320  -42.8976 C   0  0  0  0  0  0  0  0  0  0  0  0
  -35.2866    6.5640  -41.0955 X   0  0  0  0  0  0  0  0  0  0  0  0
  1  2  1  0  0  0  0
  1 13  1  0  0  0  0
  1 14  1  0  0  0  0
  2  3  1  0  0  0  0
  3  4  1  0  0  0  0
  4  5  1  0  0  0  0
  4 12  1  0  0  0  0
  5  6  1  0  0  0  0
  6  7  2  0  0  0  0
  6  8  1  0  0  0  0
  8  9  1  0  0  0  0
  9 10  1  0  0  0  0
  9 11  1  0  0  0  0
 10 11  1  0  0  0  0
 12 13  1  0  0  0  0
M  END
> <Index>
949

> <PropertyFieldDistance>
nan

$$$$
130900
BBcorina  12272117083D 1   1.00000     0.00000 
CORINA 4.3.0 0026  30.10.2019
 13 14  0  0  0  0  0  0  0  0999 V2000
  -36.0051    3.6170  -44.3790 N   0  0  0  0  0  0  0  0  0  0  0  0
  -37.0061    4.4931  -43.7543 C   0  0  0  0  0  0  0  0  0  0  0  0
  -36.5674    4.8276  -42.3267 C   0  0  0  0  0  0  0  0  0  0  0  0
  -35.2503    5.4787  -42.3616 N   0  0  0  0  0  0  0  0  0  0  0  0
  -34.2494    4.6026  -42.9863 C   0  0  0  0  0  0  0  0  0  0  0  0
  -34.6881    4.2680  -44.4139 C   0  0  0  0  0  0  0  0  0  0  0  0
  -34.8498    5.8627  -41.0853 C   0  0  0  0  0  0  0  0  0  0  0  0
  -33.6269    6.5014  -40.8811 C   0  0  0  0  0  0  0  0  0  0  0  0
  -33.2697    6.8711  -39.6015 C   0  0  0  0  0  0  0  0  0  0  0  0
  -34.0657    6.6230  -38.5783 N   0  0  0  0  0  0  0  0  0  0  0  0
  -35.2282    6.0164  -38.7297 C   0  0  0  0  0  0  0  0  0  0  0  0
  -35.6591    5.6152  -39.9766 C   0  0  0  0  0  0  0  0  0  0  0  0
  -36.4972    3.1450  -45.9472 X   0  0  0  0  0  0  0  0  0  0  0  0
  1  2  1  0  0  0  0
  1  6  1  0  0  0  0
  1 13  1  0  0  0  0
  2  3  1  0  0  0  0
  3  4  1  0  0  0  0
  4  5  1  0  0  0  0
  4  7  1  0  0  0  0
  5  6  1  0  0  0  0
  7  8  2  0  0  0  0
  7 12  1  0  0  0  0
  8  9  1  0  0  0  0
  9 10  2  0  0  0  0
 10 11  1  0  0  0  0
 11 12  2  0  0  0  0
M  END
> <Index>
962

> <PropertyFieldDistance>
nan

$$$$
125628
BBcorina  12272117083D 1   1.00000     0.00000 
CORINA 4.3.0 0026  30.10.2019
 10 10  0  0  0  0  0  0  0  0999 V2000
  -35.3989   -0.4281  -47.1030 N   0  0  0  0  0  0  0  0  0  0  0  0
  -36.1988    0.1848  -46.0341 C   0  0  0  0  0  0  0  0  0  0  0  0
  -35.7643    1.6391  -45.8420 C   0  0  0  0  0  0  0  0  0  0  0  0
  -36.5974    2.2775  -44.7288 C   0  0  0  0  0  0  0  0  0  0  0  0
  -36.1803    3.6739  -44.5443 N   0  0  0  0  0  0  0  0  0  0  0  0
  -37.1112    4.3902  -43.6533 C   0  0  0  0  0  0  0  0  0  0  0  0
  -36.2804    4.9534  -42.4812 C   0  0  0  0  0  0  0  0  0  0  0  0
  -34.8447    5.0109  -43.0666 C   0  0  0  0  0  0  0  0  0  0  0  0
  -34.8222    3.7491  -43.9647 C   0  0  0  0  0  0  0  0  0  0  0  0
  -35.8534   -2.0579  -47.3507 X   0  0  0  0  0  0  0  0  0  0  0  0
  1  2  1  0  0  0  0
  1 10  1  0  0  0  0
  2  3  1  0  0  0  0
  3  4  1  0  0  0  0
  4  5  1  0  0  0  0
  5  6  1  0  0  0  0
  5  9  1  0  0  0  0
  6  7  1  0  0  0  0
  7  8  1  0  0  0  0
  8  9  1  0  0  0  0
M  END
> <Index>
967

> <PropertyFieldDistance>
nan

$$$$
125641
BBcorina  12272117083D 1   1.00000     0.00000 
CORINA 4.3.0 0026  30.10.2019
 12 12  0  0  0  0  0  0  0  0999 V2000
  -35.0829    6.1078  -41.0928 C   0  0  0  0  0  0  0  0  0  0  0  0
  -35.3556    5.4973  -42.4007 N   0  0  0  0  0  0  0  0  0  0  0  0
  -36.5414    4.6313  -42.3408 C   0  0  0  0  0  0  0  0  0  0  0  0
  -36.8381    4.0789  -43.7370 C   0  0  0  0  0  0  0  0  0  0  0  0
  -35.6686    3.3337  -44.2244 N   0  0  0  0  0  0  0  0  0  0  0  0
  -35.9412    2.7231  -45.5324 C   0  0  0  0  0  0  0  0  0  0  0  0
  -37.0171    1.6462  -45.3782 C   0  0  0  0  0  0  0  0  0  0  0  0
  -37.3011    1.0103  -46.7405 C   0  0  0  0  0  0  0  0  0  0  0  0
  -38.3341   -0.0236  -46.5925 N   0  0  0  0  0  0  0  0  0  0  0  0
  -34.4828    4.1997  -44.2843 C   0  0  0  0  0  0  0  0  0  0  0  0
  -34.1867    4.7519  -42.8880 C   0  0  0  0  0  0  0  0  0  0  0  0
  -38.6824   -0.7614  -48.0953 X   0  0  0  0  0  0  0  0  0  0  0  0
  1  2  1  0  0  0  0
  2  3  1  0  0  0  0
  2 11  1  0  0  0  0
  3  4  1  0  0  0  0
  4  5  1  0  0  0  0
  5  6  1  0  0  0  0
  5 10  1  0  0  0  0
  6  7  1  0  0  0  0
  7  8  1  0  0  0  0
  8  9  1  0  0  0  0
  9 12  1  0  0  0  0
 10 11  1  0  0  0  0
M  END
> <Index>
968

> <PropertyFieldDistance>
nan

$$$$
129885
BBcorina  12272117083D 1   1.00000     0.00000 
CORINA 4.3.0 0026  30.10.2019
 12 12  0  0  0  0  0  0  0  0999 V2000
  -34.6226    6.6349  -41.6927 C   0  0  0  0  0  0  0  0  0  0  0  0
  -35.2319    5.8728  -42.8712 C   0  0  0  0  0  0  0  0  0  0  0  0
  -36.5217    5.1812  -42.4214 C   0  0  0  0  0  0  0  0  0  0  0  0
  -37.0947    4.3727  -43.5877 C   0  0  0  0  0  0  0  0  0  0  0  0
  -36.1096    3.3749  -44.0239 N   0  0  0  0  0  0  0  0  0  0  0  0
  -36.6762    2.4890  -45.0496 C   0  0  0  0  0  0  0  0  0  0  0  0
  -35.5626    1.6327  -45.6558 C   0  0  0  0  0  0  0  0  0  0  0  0
  -36.1528    0.7101  -46.7240 C   0  0  0  0  0  0  0  0  0  0  0  0
  -35.0835   -0.1120  -47.3061 N   0  0  0  0  0  0  0  0  0  0  0  0
  -34.8799    4.0177  -44.5048 C   0  0  0  0  0  0  0  0  0  0  0  0
  -34.2408    4.8155  -43.3658 C   0  0  0  0  0  0  0  0  0  0  0  0
  -35.7015   -1.1602  -48.5075 X   0  0  0  0  0  0  0  0  0  0  0  0
  1  2  1  0  0  0  0
  2  3  1  0  0  0  0
  2 11  1  0  0  0  0
  3  4  1  0  0  0  0
  4  5  1  0  0  0  0
  5  6  1  0  0  0  0
  5 10  1  0  0  0  0
  6  7  1  0  0  0  0
  7  8  1  0  0  0  0
  8  9  1  0  0  0  0
  9 12  1  0  0  0  0
 10 11  1  0  0  0  0
M  END
> <Index>
974

> <PropertyFieldDistance>
nan

$$$$
134732
BBcorina  12272117083D 1   1.00000     0.00000 
CORINA 4.3.0 0026  30.10.2019
 16 17  0  0  0  0  0  0  0  0999 V2000
  -32.2879   -0.8715  -47.4225 Cl  0  0  0  0  0  0  0  0  0  0  0  0
  -33.5545    0.0983  -46.7377 C   0  0  0  0  0  0  0  0  0  0  0  0
  -34.2524   -0.3548  -45.6324 C   0  0  0  0  0  0  0  0  0  0  0  0
  -35.2604    0.4179  -45.0874 C   0  0  0  0  0  0  0  0  0  0  0  0
  -35.5713    1.6434  -45.6464 C   0  0  0  0  0  0  0  0  0  0  0  0
  -36.6704    2.4855  -45.0517 C   0  0  0  0  0  0  0  0  0  0  0  0
  -36.1068    3.3727  -44.0255 N   0  0  0  0  0  0  0  0  0  0  0  0
  -37.0941    4.3694  -43.5915 C   0  0  0  0  0  0  0  0  0  0  0  0
  -36.5244    5.1793  -42.4247 C   0  0  0  0  0  0  0  0  0  0  0  0
  -35.2346    5.8725  -42.8725 C   0  0  0  0  0  0  0  0  0  0  0  0
  -34.2413    4.8164  -43.3649 C   0  0  0  0  0  0  0  0  0  0  0  0
  -34.8772    4.0170  -44.5044 C   0  0  0  0  0  0  0  0  0  0  0  0
  -34.6519    6.6043  -41.7399 N   0  0  0  0  0  0  0  0  0  0  0  0
  -34.8780    2.0942  -46.7543 C   0  0  0  0  0  0  0  0  0  0  0  0
  -33.8661    1.3249  -47.2968 C   0  0  0  0  0  0  0  0  0  0  0  0
  -34.1918    5.5326  -40.4893 X   0  0  0  0  0  0  0  0  0  0  0  0
  1  2  1  0  0  0  0
  2  3  2  0  0  0  0
  2 15  1  0  0  0  0
  3  4  1  0  0  0  0
  4  5  2  0  0  0  0
  5  6  1  0  0  0  0
  5 14  1  0  0  0  0
  6  7  1  0  0  0  0
  7  8  1  0  0  0  0
  7 12  1  0  0  0  0
  8  9  1  0  0  0  0
  9 10  1  0  0  0  0
 10 11  1  0  0  0  0
 10 13  1  0  0  0  0
 11 12  1  0  0  0  0
 13 16  1  0  0  0  0
 14 15  2  0  0  0  0
M  END
> <Index>
1011

> <PropertyFieldDistance>
nan

$$$$
135470
BBcorina  12272117083D 1   1.00000     0.00000 
CORINA 4.3.0 0026  30.10.2019
 12 12  0  0  0  0  0  0  0  0999 V2000
  -35.6629    0.3356  -47.8769 C   0  0  0  0  0  0  0  0  0  0  0  0
  -36.1556    0.5828  -46.5153 N   0  0  0  0  0  0  0  0  0  0  0  0
  -35.6692   -0.4446  -45.5848 C   0  0  0  0  0  0  0  0  0  0  0  0
  -35.7823    1.9276  -46.0565 C   0  0  0  0  0  0  0  0  0  0  0  0
  -36.5152    2.2426  -44.7509 C   0  0  0  0  0  0  0  0  0  0  0  0
  -36.1420    3.5873  -44.2922 N   0  0  0  0  0  0  0  0  0  0  0  0
  -36.9971    4.0198  -43.1779 C   0  0  0  0  0  0  0  0  0  0  0  0
  -36.6299    5.4522  -42.7828 C   0  0  0  0  0  0  0  0  0  0  0  0
  -35.2107    5.5048  -42.4050 N   0  0  0  0  0  0  0  0  0  0  0  0
  -34.3557    5.0723  -43.5191 C   0  0  0  0  0  0  0  0  0  0  0  0
  -34.7229    3.6399  -43.9143 C   0  0  0  0  0  0  0  0  0  0  0  0
  -34.7764    7.0700  -41.8709 X   0  0  0  0  0  0  0  0  0  0  0  0
  1  2  1  0  0  0  0
  2  3  1  0  0  0  0
  2  4  1  0  0  0  0
  4  5  1  0  0  0  0
  5  6  1  0  0  0  0
  6  7  1  0  0  0  0
  6 11  1  0  0  0  0
  7  8  1  0  0  0  0
  8  9  1  0  0  0  0
  9 10  1  0  0  0  0
  9 12  1  0  0  0  0
 10 11  1  0  0  0  0
M  END
> <Index>
1017

> <PropertyFieldDistance>
nan

$$$$
1155068
BBcorina  12272117083D 1   1.00000     0.00000 
CORINA 4.3.0 0026  30.10.2019
 10 10  0  0  0  0  0  0  0  0999 V2000
  -35.9644    3.5401  -43.9111 N   0  0  0  0  0  0  0  0  0  0  0  0
  -37.1589    4.3664  -44.0837 C   0  0  0  0  0  0  0  0  0  0  0  0
  -37.4355    5.2753  -42.9548 C   0  0  0  0  0  0  0  0  0  0  0  0
  -36.2684    6.2819  -42.7955 C   0  0  0  0  0  0  0  0  0  0  0  0
  -35.0912    5.5865  -42.3222 N   0  0  0  0  0  0  0  0  0  0  0  0
  -34.1035    4.9691  -43.2315 C   0  0  0  0  0  0  0  0  0  0  0  0
  -34.7901    4.2354  -44.3988 C   0  0  0  0  0  0  0  0  0  0  0  0
  -34.8868    5.4976  -40.9929 C   0  0  0  0  0  0  0  0  0  0  0  0
  -35.6810    5.9944  -40.2226 O   0  0  0  0  0  0  0  0  0  0  0  0
  -36.1472    2.0285  -44.6895 X   0  0  0  0  0  0  0  0  0  0  0  0
  1  2  1  0  0  0  0
  1  7  1  0  0  0  0
  1 10  1  0  0  0  0
  2  3  1  0  0  0  0
  3  4  1  0  0  0  0
  4  5  1  0  0  0  0
  5  6  1  0  0  0  0
  5  8  1  0  0  0  0
  6  7  1  0  0  0  0
  8  9  2  0  0  0  0
M  END
> <Index>
1029

> <PropertyFieldDistance>
nan

$$$$
137027
BBcorina  12272117083D 1   1.00000     0.00000 
CORINA 4.3.0 0026  30.10.2019
 13 14  0  0  0  0  0  0  0  0999 V2000
  -35.2517    5.7272  -42.7086 N   0  0  0  0  0  0  0  0  0  0  0  0
  -36.5103    5.0791  -42.3144 C   0  0  0  0  0  0  0  0  0  0  0  0
  -37.0927    4.3293  -43.5148 C   0  0  0  0  0  0  0  0  0  0  0  0
  -36.1182    3.3364  -43.9885 N   0  0  0  0  0  0  0  0  0  0  0  0
  -36.6706    2.5427  -45.0944 C   0  0  0  0  0  0  0  0  0  0  0  0
  -35.5753    1.7129  -45.7131 C   0  0  0  0  0  0  0  0  0  0  0  0
  -34.7963    2.1709  -46.7618 C   0  0  0  0  0  0  0  0  0  0  0  0
  -33.8718    1.3111  -47.1923 C   0  0  0  0  0  0  0  0  0  0  0  0
  -33.9576   -0.1697  -46.2471 S   0  0  0  0  0  0  0  0  0  0  0  0
  -35.2834    0.4813  -45.2922 C   0  0  0  0  0  0  0  0  0  0  0  0
  -34.8596    3.9845  -44.3827 C   0  0  0  0  0  0  0  0  0  0  0  0
  -34.2773    4.7345  -43.1823 C   0  0  0  0  0  0  0  0  0  0  0  0
  -34.6088    6.6512  -41.4213 X   0  0  0  0  0  0  0  0  0  0  0  0
  1  2  1  0  0  0  0
  1 12  1  0  0  0  0
  1 13  1  0  0  0  0
  2  3  1  0  0  0  0
  3  4  1  0  0  0  0
  4  5  1  0  0  0  0
  4 11  1  0  0  0  0
  5  6  1  0  0  0  0
  6  7  1  0  0  0  0
  6 10  2  0  0  0  0
  7  8  2  0  0  0  0
  8  9  1  0  0  0  0
  9 10  1  0  0  0  0
 11 12  1  0  0  0  0
M  END
> <Index>
1034

> <PropertyFieldDistance>
nan

$$$$
758912
BBcorina  12272117083D 1   1.00000     0.00000 
CORINA 4.3.0 0026  30.10.2019
 10 10  0  0  0  0  0  0  0  0999 V2000
  -37.0495    0.6955  -46.3992 N   0  0  0  0  0  0  0  0  0  0  0  0
  -36.9052    1.5099  -45.1852 C   0  0  0  0  0  0  0  0  0  0  0  0
  -35.8508    2.5933  -45.4202 C   0  0  0  0  0  0  0  0  0  0  0  0
  -35.7064    3.4078  -44.2062 N   0  0  0  0  0  0  0  0  0  0  0  0
  -36.9352    4.1628  -43.9298 C   0  0  0  0  0  0  0  0  0  0  0  0
  -36.8018    4.8830  -42.5862 C   0  0  0  0  0  0  0  0  0  0  0  0
  -35.5994    5.8298  -42.6374 C   0  0  0  0  0  0  0  0  0  0  0  0
  -34.3407    5.0258  -42.9745 C   0  0  0  0  0  0  0  0  0  0  0  0
  -34.5455    4.3014  -44.3069 C   0  0  0  0  0  0  0  0  0  0  0  0
  -38.2211   -0.5305  -46.1790 X   0  0  0  0  0  0  0  0  0  0  0  0
  1  2  1  0  0  0  0
  1 10  1  0  0  0  0
  2  3  1  0  0  0  0
  3  4  1  0  0  0  0
  4  5  1  0  0  0  0
  4  9  1  0  0  0  0
  5  6  1  0  0  0  0
  6  7  1  0  0  0  0
  7  8  1  0  0  0  0
  8  9  1  0  0  0  0
M  END
> <Index>
1042

> <PropertyFieldDistance>
nan

$$$$
140367
BBcorina  12272117083D 1   1.00000     0.00000 
CORINA 4.3.0 0026  30.10.2019
 12 12  0  0  0  0  0  0  0  0999 V2000
  -34.2044   -0.6016  -45.7452 C   0  0  0  0  0  0  0  0  0  0  0  0
  -35.5102    0.0721  -45.3189 C   0  0  0  0  0  0  0  0  0  0  0  0
  -35.2555    1.4822  -45.0145 N   0  0  0  0  0  0  0  0  0  0  0  0
  -36.2667    2.2788  -44.6153 C   0  0  0  0  0  0  0  0  0  0  0  0
  -37.4053    1.8526  -44.5964 O   0  0  0  0  0  0  0  0  0  0  0  0
  -36.0166    3.5495  -44.2424 N   0  0  0  0  0  0  0  0  0  0  0  0
  -37.0874    4.4037  -43.7065 C   0  0  0  0  0  0  0  0  0  0  0  0
  -36.6071    5.0157  -42.3863 C   0  0  0  0  0  0  0  0  0  0  0  0
  -35.3220    5.6934  -42.6033 N   0  0  0  0  0  0  0  0  0  0  0  0
  -34.2808    4.7423  -43.0145 C   0  0  0  0  0  0  0  0  0  0  0  0
  -34.6644    4.1171  -44.3547 C   0  0  0  0  0  0  0  0  0  0  0  0
  -34.8437    6.5610  -41.2095 X   0  0  0  0  0  0  0  0  0  0  0  0
  1  2  1  0  0  0  0
  2  3  1  0  0  0  0
  3  4  1  0  0  0  0
  4  5  2  0  0  0  0
  4  6  1  0  0  0  0
  6  7  1  0  0  0  0
  6 11  1  0  0  0  0
  7  8  1  0  0  0  0
  8  9  1  0  0  0  0
  9 10  1  0  0  0  0
  9 12  1  0  0  0  0
 10 11  1  0  0  0  0
M  END
> <Index>
1061

> <PropertyFieldDistance>
nan

$$$$
140985
BBcorina  12272117083D 1   1.00000     0.00000 
CORINA 4.3.0 0026  30.10.2019
 14 15  0  0  0  0  0  0  0  0999 V2000
  -35.0135   -0.2812  -46.9638 O   0  0  0  0  0  0  0  0  0  0  0  0
  -35.8633    0.6718  -46.4986 C   0  0  0  0  0  0  0  0  0  0  0  0
  -37.1182    0.8226  -47.0716 C   0  0  0  0  0  0  0  0  0  0  0  0
  -37.9835    1.7916  -46.5999 C   0  0  0  0  0  0  0  0  0  0  0  0
  -37.6023    2.6133  -45.5573 C   0  0  0  0  0  0  0  0  0  0  0  0
  -36.3447    2.4708  -44.9833 C   0  0  0  0  0  0  0  0  0  0  0  0
  -35.4769    1.4941  -45.4517 C   0  0  0  0  0  0  0  0  0  0  0  0
  -35.9567    3.3058  -43.9332 N   0  0  0  0  0  0  0  0  0  0  0  0
  -37.0241    4.2576  -43.5951 C   0  0  0  0  0  0  0  0  0  0  0  0
  -36.5917    5.0986  -42.3916 C   0  0  0  0  0  0  0  0  0  0  0  0
  -35.3434    5.8041  -42.7134 N   0  0  0  0  0  0  0  0  0  0  0  0
  -34.2760    4.8523  -43.0515 C   0  0  0  0  0  0  0  0  0  0  0  0
  -34.7084    4.0113  -44.2549 C   0  0  0  0  0  0  0  0  0  0  0  0
  -34.8683    6.8264  -41.4275 X   0  0  0  0  0  0  0  0  0  0  0  0
  1  2  1  0  0  0  0
  2  3  2  0  0  0  0
  2  7  1  0  0  0  0
  3  4  1  0  0  0  0
  4  5  2  0  0  0  0
  5  6  1  0  0  0  0
  6  7  2  0  0  0  0
  6  8  1  0  0  0  0
  8  9  1  0  0  0  0
  8 13  1  0  0  0  0
  9 10  1  0  0  0  0
 10 11  1  0  0  0  0
 11 12  1  0  0  0  0
 11 14  1  0  0  0  0
 12 13  1  0  0  0  0
M  END
> <Index>
1065

> <PropertyFieldDistance>
nan

$$$$
146331
BBcorina  12272117083D 1   1.00000     0.00000 
CORINA 4.3.0 0026  30.10.2019
 12 13  0  0  0  0  0  0  0  0999 V2000
  -33.5814    1.0777  -43.8260 N   0  0  0  0  0  0  0  0  0  0  0  0
  -34.2919    1.5643  -45.0161 C   0  0  0  0  0  0  0  0  0  0  0  0
  -35.7273    1.0347  -45.0053 C   0  0  0  0  0  0  0  0  0  0  0  0
  -36.4434    1.5281  -43.7465 C   0  0  0  0  0  0  0  0  0  0  0  0
  -36.4642    3.0580  -43.7381 C   0  0  0  0  0  0  0  0  0  0  0  0
  -37.1803    3.5514  -42.4793 C   0  0  0  0  0  0  0  0  0  0  0  0
  -37.2011    5.0812  -42.4709 C   0  0  0  0  0  0  0  0  0  0  0  0
  -35.7657    5.6108  -42.4817 C   0  0  0  0  0  0  0  0  0  0  0  0
  -35.0495    5.1174  -43.7405 C   0  0  0  0  0  0  0  0  0  0  0  0
  -35.0288    3.5875  -43.7489 C   0  0  0  0  0  0  0  0  0  0  0  0
  -34.3127    3.0941  -45.0077 C   0  0  0  0  0  0  0  0  0  0  0  0
  -32.8142   -0.4181  -44.1393 X   0  0  0  0  0  0  0  0  0  0  0  0
  1  2  1  0  0  0  0
  1 12  1  0  0  0  0
  2  3  1  0  0  0  0
  2 11  1  0  0  0  0
  3  4  1  0  0  0  0
  4  5  1  0  0  0  0
  5  6  1  0  0  0  0
  5 10  1  0  0  0  0
  6  7  1  0  0  0  0
  7  8  1  0  0  0  0
  8  9  1  0  0  0  0
  9 10  1  0  0  0  0
 10 11  1  0  0  0  0
M  END
> <Index>
1079

> <PropertyFieldDistance>
nan

$$$$
146507
BBcorina  12272117083D 1   1.00000     0.00000 
CORINA 4.3.0 0026  30.10.2019
 11 11  0  0  0  0  0  0  0  0999 V2000
  -36.6825    2.1845  -46.5251 C   0  0  0  0  0  0  0  0  0  0  0  0
  -36.2384    2.0264  -44.7734 S   0  0  0  0  0  0  0  0  0  0  0  0
  -34.9763    1.3885  -44.6346 O   0  0  0  0  0  0  0  0  0  0  0  0
  -37.3605    1.6040  -44.0107 O   0  0  0  0  0  0  0  0  0  0  0  0
  -35.9670    3.5817  -44.2738 N   0  0  0  0  0  0  0  0  0  0  0  0
  -37.0600    4.4007  -43.7278 C   0  0  0  0  0  0  0  0  0  0  0  0
  -36.6048    4.9889  -42.3879 C   0  0  0  0  0  0  0  0  0  0  0  0
  -35.3315    5.6971  -42.5749 N   0  0  0  0  0  0  0  0  0  0  0  0
  -34.2675    4.7774  -42.9991 C   0  0  0  0  0  0  0  0  0  0  0  0
  -34.6267    4.1806  -44.3640 C   0  0  0  0  0  0  0  0  0  0  0  0
  -34.8841    6.5387  -41.1552 X   0  0  0  0  0  0  0  0  0  0  0  0
  1  2  1  0  0  0  0
  2  3  2  0  0  0  0
  2  4  2  0  0  0  0
  2  5  1  0  0  0  0
  5  6  1  0  0  0  0
  5 10  1  0  0  0  0
  6  7  1  0  0  0  0
  7  8  1  0  0  0  0
  8  9  1  0  0  0  0
  8 11  1  0  0  0  0
  9 10  1  0  0  0  0
M  END
> <Index>
1082

> <PropertyFieldDistance>
nan

$$$$
147570
BBcorina  12272117083D 1   1.00000     0.00000 
CORINA 4.3.0 0026  30.10.2019
 16 17  0  0  0  0  0  0  0  0999 V2000
  -34.9072    7.1111  -42.6151 N   0  0  0  0  0  0  0  0  0  0  0  0
  -35.1937    5.6721  -42.6870 C   0  0  0  0  0  0  0  0  0  0  0  0
  -36.6841    5.4622  -42.9640 C   0  0  0  0  0  0  0  0  0  0  0  0
  -36.9855    3.9607  -43.0040 C   0  0  0  0  0  0  0  0  0  0  0  0
  -36.0966    3.3231  -43.9848 N   0  0  0  0  0  0  0  0  0  0  0  0
  -34.6454    3.5379  -43.8634 C   0  0  0  0  0  0  0  0  0  0  0  0
  -34.3703    5.0441  -43.8138 C   0  0  0  0  0  0  0  0  0  0  0  0
  -36.6012    2.5608  -44.9752 C   0  0  0  0  0  0  0  0  0  0  0  0
  -37.7953    2.3385  -45.0228 O   0  0  0  0  0  0  0  0  0  0  0  0
  -35.7024    1.9950  -46.0037 C   0  0  0  0  0  0  0  0  0  0  0  0
  -35.9968    2.1581  -47.3583 C   0  0  0  0  0  0  0  0  0  0  0  0
  -35.1537    1.6281  -48.3130 C   0  0  0  0  0  0  0  0  0  0  0  0
  -34.0186    0.9357  -47.9302 C   0  0  0  0  0  0  0  0  0  0  0  0
  -33.7209    0.7705  -46.5891 C   0  0  0  0  0  0  0  0  0  0  0  0
  -34.5527    1.3005  -45.6244 C   0  0  0  0  0  0  0  0  0  0  0  0
  -35.4077    7.9078  -44.0430 X   0  0  0  0  0  0  0  0  0  0  0  0
  1  2  1  0  0  0  0
  1 16  1  0  0  0  0
  2  3  1  0  0  0  0
  2  7  1  0  0  0  0
  3  4  1  0  0  0  0
  4  5  1  0  0  0  0
  5  6  1  0  0  0  0
  5  8  1  0  0  0  0
  6  7  1  0  0  0  0
  8  9  2  0  0  0  0
  8 10  1  0  0  0  0
 10 11  2  0  0  0  0
 10 15  1  0  0  0  0
 11 12  1  0  0  0  0
 12 13  2  0  0  0  0
 13 14  1  0  0  0  0
 14 15  2  0  0  0  0
M  END
> <Index>
1092

> <PropertyFieldDistance>
nan

$$$$
300532
BBcorina  12272117083D 1   1.00000     0.00000 
CORINA 4.3.0 0026  30.10.2019
 16 17  0  0  0  0  0  0  0  0999 V2000
  -36.4280    2.6263  -45.2585 C   0  0  0  0  0  0  0  0  0  0  0  0
  -35.9862    3.2986  -44.0294 N   0  0  0  0  0  0  0  0  0  0  0  0
  -37.0075    4.2385  -43.5468 C   0  0  0  0  0  0  0  0  0  0  0  0
  -36.5443    4.8573  -42.2259 C   0  0  0  0  0  0  0  0  0  0  0  0
  -35.2596    5.5403  -42.4319 N   0  0  0  0  0  0  0  0  0  0  0  0
  -34.2381    4.6004  -42.9144 C   0  0  0  0  0  0  0  0  0  0  0  0
  -34.7013    3.9816  -44.2353 C   0  0  0  0  0  0  0  0  0  0  0  0
  -34.8385    6.1810  -41.2605 C   0  0  0  0  0  0  0  0  0  0  0  0
  -34.5293    5.4327  -40.1326 C   0  0  0  0  0  0  0  0  0  0  0  0
  -34.1197    6.0653  -38.9751 C   0  0  0  0  0  0  0  0  0  0  0  0
  -34.0119    7.4490  -38.9411 C   0  0  0  0  0  0  0  0  0  0  0  0
  -33.5962    8.0901  -37.7680 N   0  0  0  0  0  0  0  0  0  0  0  0
  -34.3156    8.1971  -40.0711 C   0  0  0  0  0  0  0  0  0  0  0  0
  -34.7250    7.5648  -41.2282 C   0  0  0  0  0  0  0  0  0  0  0  0
  -35.0547    8.3766  -42.4543 C   0  0  0  0  0  0  0  0  0  0  0  0
  -33.2221    7.1689  -36.3767 X   0  0  0  0  0  0  0  0  0  0  0  0
  1  2  1  0  0  0  0
  2  3  1  0  0  0  0
  2  7  1  0  0  0  0
  3  4  1  0  0  0  0
  4  5  1  0  0  0  0
  5  6  1  0  0  0  0
  5  8  1  0  0  0  0
  6  7  1  0  0  0  0
  8  9  2  0  0  0  0
  8 14  1  0  0  0  0
  9 10  1  0  0  0  0
 10 11  2  0  0  0  0
 11 12  1  0  0  0  0
 11 13  1  0  0  0  0
 12 16  1  0  0  0  0
 13 14  2  0  0  0  0
 14 15  1  0  0  0  0
M  END
> <Index>
1099

> <PropertyFieldDistance>
nan

$$$$
147976
BBcorina  12272117083D 1   1.00000     0.00000 
CORINA 4.3.0 0026  30.10.2019
 14 15  0  0  0  0  0  0  0  0999 V2000
  -35.2517    5.7272  -42.7086 N   0  0  0  0  0  0  0  0  0  0  0  0
  -36.5103    5.0791  -42.3143 C   0  0  0  0  0  0  0  0  0  0  0  0
  -37.0927    4.3292  -43.5148 C   0  0  0  0  0  0  0  0  0  0  0  0
  -36.1183    3.3364  -43.9885 N   0  0  0  0  0  0  0  0  0  0  0  0
  -36.6706    2.5428  -45.0943 C   0  0  0  0  0  0  0  0  0  0  0  0
  -35.5753    1.7129  -45.7132 C   0  0  0  0  0  0  0  0  0  0  0  0
  -35.3923    0.4068  -45.3008 C   0  0  0  0  0  0  0  0  0  0  0  0
  -34.3782   -0.3465  -45.8727 C   0  0  0  0  0  0  0  0  0  0  0  0
  -33.5899    0.2417  -46.8495 C   0  0  0  0  0  0  0  0  0  0  0  0
  -33.8327    1.5535  -47.2113 C   0  0  0  0  0  0  0  0  0  0  0  0
  -34.8030    2.2416  -46.6423 N   0  0  0  0  0  0  0  0  0  0  0  0
  -34.8596    3.9845  -44.3827 C   0  0  0  0  0  0  0  0  0  0  0  0
  -34.2773    4.7345  -43.1823 C   0  0  0  0  0  0  0  0  0  0  0  0
  -34.6087    6.6512  -41.4212 X   0  0  0  0  0  0  0  0  0  0  0  0
  1  2  1  0  0  0  0
  1 13  1  0  0  0  0
  1 14  1  0  0  0  0
  2  3  1  0  0  0  0
  3  4  1  0  0  0  0
  4  5  1  0  0  0  0
  4 12  1  0  0  0  0
  5  6  1  0  0  0  0
  6  7  2  0  0  0  0
  6 11  1  0  0  0  0
  7  8  1  0  0  0  0
  8  9  2  0  0  0  0
  9 10  1  0  0  0  0
 10 11  2  0  0  0  0
 12 13  1  0  0  0  0
M  END
> <Index>
1101

> <PropertyFieldDistance>
nan

$$$$
148191
BBcorina  12272117083D 1   1.00000     0.00000 
CORINA 4.3.0 0026  30.10.2019
 14 15  0  0  0  0  0  0  0  0999 V2000
  -34.9181   -0.3840  -47.0088 C   0  0  0  0  0  0  0  0  0  0  0  0
  -35.8616    0.6729  -46.4951 C   0  0  0  0  0  0  0  0  0  0  0  0
  -37.1135    0.8166  -47.0640 C   0  0  0  0  0  0  0  0  0  0  0  0
  -37.9823    1.7855  -46.5958 C   0  0  0  0  0  0  0  0  0  0  0  0
  -37.6018    2.6127  -45.5577 C   0  0  0  0  0  0  0  0  0  0  0  0
  -36.3448    2.4708  -44.9833 C   0  0  0  0  0  0  0  0  0  0  0  0
  -35.4768    1.4932  -45.4525 C   0  0  0  0  0  0  0  0  0  0  0  0
  -35.9567    3.3058  -43.9331 N   0  0  0  0  0  0  0  0  0  0  0  0
  -37.0241    4.2577  -43.5950 C   0  0  0  0  0  0  0  0  0  0  0  0
  -36.5918    5.0985  -42.3916 C   0  0  0  0  0  0  0  0  0  0  0  0
  -35.3434    5.8041  -42.7134 N   0  0  0  0  0  0  0  0  0  0  0  0
  -34.2760    4.8523  -43.0515 C   0  0  0  0  0  0  0  0  0  0  0  0
  -34.7083    4.0114  -44.2549 C   0  0  0  0  0  0  0  0  0  0  0  0
  -34.8683    6.8264  -41.4276 X   0  0  0  0  0  0  0  0  0  0  0  0
  1  2  1  0  0  0  0
  2  3  2  0  0  0  0
  2  7  1  0  0  0  0
  3  4  1  0  0  0  0
  4  5  2  0  0  0  0
  5  6  1  0  0  0  0
  6  7  2  0  0  0  0
  6  8  1  0  0  0  0
  8  9  1  0  0  0  0
  8 13  1  0  0  0  0
  9 10  1  0  0  0  0
 10 11  1  0  0  0  0
 11 12  1  0  0  0  0
 11 14  1  0  0  0  0
 12 13  1  0  0  0  0
M  END
> <Index>
1103

> <PropertyFieldDistance>
nan

$$$$
148234
BBcorina  12272117083D 1   1.00000     0.00000 
CORINA 4.3.0 0026  30.10.2019
 13 14  0  0  0  0  0  0  0  0999 V2000
  -35.2517    5.7272  -42.7086 N   0  0  0  0  0  0  0  0  0  0  0  0
  -36.5104    5.0792  -42.3144 C   0  0  0  0  0  0  0  0  0  0  0  0
  -37.0927    4.3292  -43.5147 C   0  0  0  0  0  0  0  0  0  0  0  0
  -36.1182    3.3364  -43.9885 N   0  0  0  0  0  0  0  0  0  0  0  0
  -36.6706    2.5427  -45.0944 C   0  0  0  0  0  0  0  0  0  0  0  0
  -35.5754    1.7129  -45.7132 C   0  0  0  0  0  0  0  0  0  0  0  0
  -35.2266    0.4679  -45.3422 C   0  0  0  0  0  0  0  0  0  0  0  0
  -34.1649    0.0709  -46.1870 C   0  0  0  0  0  0  0  0  0  0  0  0
  -33.9226    1.1003  -47.0184 C   0  0  0  0  0  0  0  0  0  0  0  0
  -34.7821    2.0909  -46.7289 O   0  0  0  0  0  0  0  0  0  0  0  0
  -34.8596    3.9845  -44.3827 C   0  0  0  0  0  0  0  0  0  0  0  0
  -34.2773    4.7344  -43.1823 C   0  0  0  0  0  0  0  0  0  0  0  0
  -34.6088    6.6511  -41.4213 X   0  0  0  0  0  0  0  0  0  0  0  0
  1  2  1  0  0  0  0
  1 12  1  0  0  0  0
  1 13  1  0  0  0  0
  2  3  1  0  0  0  0
  3  4  1  0  0  0  0
  4  5  1  0  0  0  0
  4 11  1  0  0  0  0
  5  6  1  0  0  0  0
  6  7  2  0  0  0  0
  6 10  1  0  0  0  0
  7  8  1  0  0  0  0
  8  9  2  0  0  0  0
  9 10  1  0  0  0  0
 11 12  1  0  0  0  0
M  END
> <Index>
1107

> <PropertyFieldDistance>
nan

$$$$
300290
BBcorina  12272117083D 1   1.00000     0.00000 
CORINA 4.3.0 0026  30.10.2019
  8  8  0  0  0  0  0  0  0  0999 V2000
  -36.4254    4.3897  -41.5264 C   0  0  0  0  0  0  0  0  0  0  0  0
  -36.8421    3.8733  -42.8370 N   0  0  0  0  0  0  0  0  0  0  0  0
  -35.6774    3.5946  -43.6876 C   0  0  0  0  0  0  0  0  0  0  0  0
  -34.9094    2.3469  -43.1829 C   0  0  0  0  0  0  0  0  0  0  0  0
  -34.1592    1.8354  -44.4301 C   0  0  0  0  0  0  0  0  0  0  0  0
  -34.9310    2.3588  -45.6540 C   0  0  0  0  0  0  0  0  0  0  0  0
  -36.1244    3.1701  -45.1086 C   0  0  0  0  0  0  0  0  0  0  0  0
  -37.9190    4.9552  -43.6077 X   0  0  0  0  0  0  0  0  0  0  0  0
  1  2  1  0  0  0  0
  2  3  1  0  0  0  0
  2  8  1  0  0  0  0
  3  4  1  0  0  0  0
  3  7  1  0  0  0  0
  4  5  1  0  0  0  0
  5  6  1  0  0  0  0
  6  7  1  0  0  0  0
M  END
> <Index>
1117

> <PropertyFieldDistance>
nan

$$$$
205163
BBcorina  12272117083D 1   1.00000     0.00000 
CORINA 4.3.0 0026  30.10.2019
  9  9  0  0  0  0  0  0  0  0999 V2000
  -35.4942    7.8352  -41.3239 C   0  0  0  0  0  0  0  0  0  0  0  0
  -34.9728    6.5142  -41.4836 O   0  0  0  0  0  0  0  0  0  0  0  0
  -35.3535    5.8833  -42.7079 C   0  0  0  0  0  0  0  0  0  0  0  0
  -36.6585    5.1099  -42.5008 C   0  0  0  0  0  0  0  0  0  0  0  0
  -37.0291    4.3869  -43.7977 C   0  0  0  0  0  0  0  0  0  0  0  0
  -35.9480    3.4664  -44.1723 N   0  0  0  0  0  0  0  0  0  0  0  0
  -34.6958    4.1916  -44.4226 C   0  0  0  0  0  0  0  0  0  0  0  0
  -34.2559    4.9088  -43.1442 C   0  0  0  0  0  0  0  0  0  0  0  0
  -36.3899    2.5211  -45.5270 X   0  0  0  0  0  0  0  0  0  0  0  0
  1  2  1  0  0  0  0
  2  3  1  0  0  0  0
  3  4  1  0  0  0  0
  3  8  1  0  0  0  0
  4  5  1  0  0  0  0
  5  6  1  0  0  0  0
  6  7  1  0  0  0  0
  6  9  1  0  0  0  0
  7  8  1  0  0  0  0
M  END
> <Index>
1119

> <PropertyFieldDistance>
nan

$$$$
148856
BBcorina  12272117083D 1   1.00000     0.00000 
CORINA 4.3.0 0026  30.10.2019
 14 14  0  0  0  0  0  0  0  0999 V2000
  -35.5022    5.7057  -42.5587 N   0  0  0  0  0  0  0  0  0  0  0  0
  -36.6834    4.8341  -42.4888 C   0  0  0  0  0  0  0  0  0  0  0  0
  -36.8869    4.1460  -43.8407 C   0  0  0  0  0  0  0  0  0  0  0  0
  -35.6843    3.3723  -44.1796 N   0  0  0  0  0  0  0  0  0  0  0  0
  -35.8696    2.6350  -45.4365 C   0  0  0  0  0  0  0  0  0  0  0  0
  -36.9265    1.5775  -45.2475 C   0  0  0  0  0  0  0  0  0  0  0  0
  -37.3901    1.3736  -44.1456 O   0  0  0  0  0  0  0  0  0  0  0  0
  -37.3564    0.8582  -46.3032 N   0  0  0  0  0  0  0  0  0  0  0  0
  -38.3838   -0.1699  -46.1194 C   0  0  0  0  0  0  0  0  0  0  0  0
  -38.6890   -0.8177  -47.4454 C   0  0  0  0  0  0  0  0  0  0  0  0
  -38.5973   -2.1179  -47.5756 C   0  0  0  0  0  0  0  0  0  0  0  0
  -34.5032    4.2439  -44.2494 C   0  0  0  0  0  0  0  0  0  0  0  0
  -34.2996    4.9320  -42.8976 C   0  0  0  0  0  0  0  0  0  0  0  0
  -35.2866    6.5640  -41.0955 X   0  0  0  0  0  0  0  0  0  0  0  0
  1  2  1  0  0  0  0
  1 13  1  0  0  0  0
  1 14  1  0  0  0  0
  2  3  1  0  0  0  0
  3  4  1  0  0  0  0
  4  5  1  0  0  0  0
  4 12  1  0  0  0  0
  5  6  1  0  0  0  0
  6  7  2  0  0  0  0
  6  8  1  0  0  0  0
  8  9  1  0  0  0  0
  9 10  1  0  0  0  0
 10 11  2  0  0  0  0
 12 13  1  0  0  0  0
M  END
> <Index>
1122

> <PropertyFieldDistance>
nan

$$$$
149966
BBcorina  12272117083D 1   1.00000     0.00000 
CORINA 4.3.0 0026  30.10.2019
 14 15  0  0  0  0  0  0  0  0999 V2000
  -33.3590   -1.1338  -46.2873 C   0  0  0  0  0  0  0  0  0  0  0  0
  -34.1478    0.1493  -46.2389 C   0  0  0  0  0  0  0  0  0  0  0  0
  -35.2075    0.4593  -45.3558 C   0  0  0  0  0  0  0  0  0  0  0  0
  -35.5754    1.7129  -45.7132 C   0  0  0  0  0  0  0  0  0  0  0  0
  -36.6706    2.5427  -45.0944 C   0  0  0  0  0  0  0  0  0  0  0  0
  -36.1182    3.3364  -43.9885 N   0  0  0  0  0  0  0  0  0  0  0  0
  -37.0927    4.3292  -43.5148 C   0  0  0  0  0  0  0  0  0  0  0  0
  -36.5104    5.0791  -42.3143 C   0  0  0  0  0  0  0  0  0  0  0  0
  -35.2517    5.7273  -42.7086 N   0  0  0  0  0  0  0  0  0  0  0  0
  -34.2773    4.7344  -43.1823 C   0  0  0  0  0  0  0  0  0  0  0  0
  -34.8596    3.9845  -44.3827 C   0  0  0  0  0  0  0  0  0  0  0  0
  -34.7724    2.0700  -46.7253 O   0  0  0  0  0  0  0  0  0  0  0  0
  -33.9887    1.1917  -47.0022 N   0  0  0  0  0  0  0  0  0  0  0  0
  -34.6087    6.6511  -41.4213 X   0  0  0  0  0  0  0  0  0  0  0  0
  1  2  1  0  0  0  0
  2  3  1  0  0  0  0
  2 13  2  0  0  0  0
  3  4  2  0  0  0  0
  4  5  1  0  0  0  0
  4 12  1  0  0  0  0
  5  6  1  0  0  0  0
  6  7  1  0  0  0  0
  6 11  1  0  0  0  0
  7  8  1  0  0  0  0
  8  9  1  0  0  0  0
  9 10  1  0  0  0  0
  9 14  1  0  0  0  0
 10 11  1  0  0  0  0
 12 13  1  0  0  0  0
M  END
> <Index>
1130

> <PropertyFieldDistance>
nan

$$$$
150139
BBcorina  12272117083D 1   1.00000     0.00000 
CORINA 4.3.0 0026  30.10.2019
 11 11  0  0  0  0  0  0  0  0999 V2000
  -35.3846    1.7394  -45.5346 C   0  0  0  0  0  0  0  0  0  0  0  0
  -36.4498    2.4439  -44.7347 C   0  0  0  0  0  0  0  0  0  0  0  0
  -37.4906    1.8765  -44.4782 O   0  0  0  0  0  0  0  0  0  0  0  0
  -36.2482    3.7068  -44.3089 N   0  0  0  0  0  0  0  0  0  0  0  0
  -37.3149    4.3748  -43.5377 C   0  0  0  0  0  0  0  0  0  0  0  0
  -36.7288    5.1704  -42.3543 C   0  0  0  0  0  0  0  0  0  0  0  0
  -35.6020    4.3866  -41.7185 C   0  0  0  0  0  0  0  0  0  0  0  0
  -34.3365    4.7838  -42.3332 N   0  0  0  0  0  0  0  0  0  0  0  0
  -33.9641    4.0896  -43.5080 C   0  0  0  0  0  0  0  0  0  0  0  0
  -34.9950    4.3588  -44.6307 C   0  0  0  0  0  0  0  0  0  0  0  0
  -33.0680    4.7723  -41.1865 X   0  0  0  0  0  0  0  0  0  0  0  0
  1  2  1  0  0  0  0
  2  3  2  0  0  0  0
  2  4  1  0  0  0  0
  4  5  1  0  0  0  0
  4 10  1  0  0  0  0
  5  6  1  0  0  0  0
  6  7  1  0  0  0  0
  7  8  1  0  0  0  0
  8  9  1  0  0  0  0
  8 11  1  0  0  0  0
  9 10  1  0  0  0  0
M  END
> <Index>
1131

> <PropertyFieldDistance>
nan

$$$$
204344
BBcorina  12272117083D 1   1.00000     0.00000 
CORINA 4.3.0 0026  30.10.2019
 11 11  0  0  0  0  0  0  0  0999 V2000
  -35.3534    7.9325  -39.4415 C   0  0  0  0  0  0  0  0  0  0  0  0
  -35.6601    6.7224  -40.2081 N   0  0  0  0  0  0  0  0  0  0  0  0
  -34.9307    6.4122  -41.2983 C   0  0  0  0  0  0  0  0  0  0  0  0
  -34.0204    7.1350  -41.6444 O   0  0  0  0  0  0  0  0  0  0  0  0
  -35.2462    5.1675  -42.0868 C   0  0  0  0  0  0  0  0  0  0  0  0
  -36.6793    5.2476  -42.6203 C   0  0  0  0  0  0  0  0  0  0  0  0
  -36.9723    4.0086  -43.4694 C   0  0  0  0  0  0  0  0  0  0  0  0
  -36.0191    3.9414  -44.5845 N   0  0  0  0  0  0  0  0  0  0  0  0
  -34.6396    3.8164  -44.0971 C   0  0  0  0  0  0  0  0  0  0  0  0
  -34.2769    5.0496  -43.2664 C   0  0  0  0  0  0  0  0  0  0  0  0
  -36.4111    2.6624  -45.6495 X   0  0  0  0  0  0  0  0  0  0  0  0
  1  2  1  0  0  0  0
  2  3  1  0  0  0  0
  3  4  2  0  0  0  0
  3  5  1  0  0  0  0
  5  6  1  0  0  0  0
  5 10  1  0  0  0  0
  6  7  1  0  0  0  0
  7  8  1  0  0  0  0
  8  9  1  0  0  0  0
  8 11  1  0  0  0  0
  9 10  1  0  0  0  0
M  END
> <Index>
1133

> <PropertyFieldDistance>
nan

$$$$
2559440
BBcorina  12272117083D 1   1.00000     0.00000 
CORINA 4.3.0 0026  30.10.2019
 13 13  0  0  0  0  0  0  0  0999 V2000
  -35.2000    0.6167  -44.6314 C   0  0  0  0  0  0  0  0  0  0  0  0
  -35.5862    1.6525  -45.6893 C   0  0  0  0  0  0  0  0  0  0  0  0
  -36.1215    0.9375  -46.9315 C   0  0  0  0  0  0  0  0  0  0  0  0
  -36.6679    2.5768  -45.1269 C   0  0  0  0  0  0  0  0  0  0  0  0
  -37.8045    1.7704  -44.6526 C   0  0  0  0  0  0  0  0  0  0  0  0
  -38.6815    1.1480  -44.2866 N   0  0  0  0  0  0  0  0  0  0  0  0
  -36.1163    3.3517  -44.0075 N   0  0  0  0  0  0  0  0  0  0  0  0
  -37.0912    4.3363  -43.5176 C   0  0  0  0  0  0  0  0  0  0  0  0
  -36.5097    5.0659  -42.3043 C   0  0  0  0  0  0  0  0  0  0  0  0
  -35.2509    5.7207  -42.6868 N   0  0  0  0  0  0  0  0  0  0  0  0
  -34.2761    4.7362  -43.1766 C   0  0  0  0  0  0  0  0  0  0  0  0
  -34.8575    4.0066  -44.3899 C   0  0  0  0  0  0  0  0  0  0  0  0
  -34.6088    6.6228  -41.3836 X   0  0  0  0  0  0  0  0  0  0  0  0
  1  2  1  0  0  0  0
  2  3  1  0  0  0  0
  2  4  1  0  0  0  0
  4  5  1  0  0  0  0
  4  7  1  0  0  0  0
  5  6  3  0  0  0  0
  7  8  1  0  0  0  0
  7 12  1  0  0  0  0
  8  9  1  0  0  0  0
  9 10  1  0  0  0  0
 10 11  1  0  0  0  0
 10 13  1  0  0  0  0
 11 12  1  0  0  0  0
M  END
> <Index>
1139

> <PropertyFieldDistance>
nan

$$$$
153713
BBcorina  12272117083D 1   1.00000     0.00000 
CORINA 4.3.0 0026  30.10.2019
 11 11  0  0  0  0  0  0  0  0999 V2000
  -35.1444    6.1765  -41.1497 C   0  0  0  0  0  0  0  0  0  0  0  0
  -35.3711    5.5067  -42.4372 N   0  0  0  0  0  0  0  0  0  0  0  0
  -36.5505    4.6323  -42.3756 C   0  0  0  0  0  0  0  0  0  0  0  0
  -36.7989    4.0165  -43.7546 C   0  0  0  0  0  0  0  0  0  0  0  0
  -35.6084    3.2624  -44.1726 N   0  0  0  0  0  0  0  0  0  0  0  0
  -35.8350    2.5926  -45.4603 C   0  0  0  0  0  0  0  0  0  0  0  0
  -37.1960    1.8937  -45.4390 C   0  0  0  0  0  0  0  0  0  0  0  0
  -37.4225    1.2238  -46.7267 N   0  0  0  0  0  0  0  0  0  0  0  0
  -34.4290    4.1369  -44.2343 C   0  0  0  0  0  0  0  0  0  0  0  0
  -34.1811    4.7525  -42.8553 C   0  0  0  0  0  0  0  0  0  0  0  0
  -38.9362    0.4282  -46.7455 X   0  0  0  0  0  0  0  0  0  0  0  0
  1  2  1  0  0  0  0
  2  3  1  0  0  0  0
  2 10  1  0  0  0  0
  3  4  1  0  0  0  0
  4  5  1  0  0  0  0
  5  6  1  0  0  0  0
  5  9  1  0  0  0  0
  6  7  1  0  0  0  0
  7  8  1  0  0  0  0
  8 11  1  0  0  0  0
  9 10  1  0  0  0  0
M  END
> <Index>
1140

> <PropertyFieldDistance>
nan

$$$$
158200
BBcorina  12272117083D 1   1.00000     0.00000 
CORINA 4.3.0 0026  30.10.2019
 15 16  0  0  0  0  0  0  0  0999 V2000
  -35.2915    5.7536  -42.7110 N   0  0  0  0  0  0  0  0  0  0  0  0
  -36.2954    5.3769  -41.6899 C   0  0  0  0  0  0  0  0  0  0  0  0
  -36.9591    4.0235  -41.9900 C   0  0  0  0  0  0  0  0  0  0  0  0
  -37.2802    3.8614  -43.4545 C   0  0  0  0  0  0  0  0  0  0  0  0
  -36.1423    3.1829  -44.1121 N   0  0  0  0  0  0  0  0  0  0  0  0
  -36.5842    2.4531  -45.3080 C   0  0  0  0  0  0  0  0  0  0  0  0
  -35.4963    1.5090  -45.7509 C   0  0  0  0  0  0  0  0  0  0  0  0
  -35.4595    0.2175  -45.2593 C   0  0  0  0  0  0  0  0  0  0  0  0
  -34.4617   -0.6486  -45.6659 C   0  0  0  0  0  0  0  0  0  0  0  0
  -33.5007   -0.2231  -46.5637 C   0  0  0  0  0  0  0  0  0  0  0  0
  -33.5378    1.0682  -47.0557 C   0  0  0  0  0  0  0  0  0  0  0  0
  -34.5385    1.9327  -46.6531 C   0  0  0  0  0  0  0  0  0  0  0  0
  -35.0674    4.0295  -44.4096 C   0  0  0  0  0  0  0  0  0  0  0  0
  -34.4545    4.6560  -43.1409 C   0  0  0  0  0  0  0  0  0  0  0  0
  -34.3446    7.0752  -42.1810 X   0  0  0  0  0  0  0  0  0  0  0  0
  1  2  1  0  0  0  0
  1 14  1  0  0  0  0
  1 15  1  0  0  0  0
  2  3  1  0  0  0  0
  3  4  1  0  0  0  0
  4  5  1  0  0  0  0
  5  6  1  0  0  0  0
  5 13  1  0  0  0  0
  6  7  1  0  0  0  0
  7  8  2  0  0  0  0
  7 12  1  0  0  0  0
  8  9  1  0  0  0  0
  9 10  2  0  0  0  0
 10 11  1  0  0  0  0
 11 12  2  0  0  0  0
 13 14  1  0  0  0  0
M  END
> <Index>
1143

> <PropertyFieldDistance>
nan

$$$$
197706
BBcorina  12272117083D 1   1.00000     0.00000 
CORINA 4.3.0 0026  30.10.2019
 12 12  0  0  0  0  0  0  0  0999 V2000
  -34.8036    2.7780  -46.3637 F   0  0  0  0  0  0  0  0  0  0  0  0
  -36.1499    2.5241  -46.0807 C   0  0  0  0  0  0  0  0  0  0  0  0
  -36.6313    1.5392  -46.9499 F   0  0  0  0  0  0  0  0  0  0  0  0
  -36.8915    3.6982  -46.2498 F   0  0  0  0  0  0  0  0  0  0  0  0
  -36.2848    2.0394  -44.6358 C   0  0  0  0  0  0  0  0  0  0  0  0
  -35.9262    3.1291  -43.7183 N   0  0  0  0  0  0  0  0  0  0  0  0
  -37.0137    4.1125  -43.6182 C   0  0  0  0  0  0  0  0  0  0  0  0
  -36.6345    5.1861  -42.5955 C   0  0  0  0  0  0  0  0  0  0  0  0
  -35.3808    5.8319  -43.0091 N   0  0  0  0  0  0  0  0  0  0  0  0
  -34.2933    4.8486  -43.1092 C   0  0  0  0  0  0  0  0  0  0  0  0
  -34.6726    3.7749  -44.1319 C   0  0  0  0  0  0  0  0  0  0  0  0
  -34.9635    7.1005  -41.9410 X   0  0  0  0  0  0  0  0  0  0  0  0
  1  2  1  0  0  0  0
  2  3  1  0  0  0  0
  2  4  1  0  0  0  0
  2  5  1  0  0  0  0
  5  6  1  0  0  0  0
  6  7  1  0  0  0  0
  6 11  1  0  0  0  0
  7  8  1  0  0  0  0
  8  9  1  0  0  0  0
  9 10  1  0  0  0  0
  9 12  1  0  0  0  0
 10 11  1  0  0  0  0
M  END
> <Index>
1155

> <PropertyFieldDistance>
nan

$$$$
4836782
BBcorina  12272117083D 1   1.00000     0.00000 
CORINA 4.3.0 0026  30.10.2019
 11 11  0  0  0  0  0  0  0  0999 V2000
  -37.5617    2.8133  -48.0747 C   0  0  0  0  0  0  0  0  0  0  0  0
  -36.5879    2.8368  -47.0292 O   0  0  0  0  0  0  0  0  0  0  0  0
  -36.9388    2.0483  -45.8903 C   0  0  0  0  0  0  0  0  0  0  0  0
  -35.8304    2.1471  -44.8403 C   0  0  0  0  0  0  0  0  0  0  0  0
  -35.7401    3.5298  -44.3522 N   0  0  0  0  0  0  0  0  0  0  0  0
  -36.8411    3.8349  -43.4280 C   0  0  0  0  0  0  0  0  0  0  0  0
  -36.7569    5.3035  -43.0055 C   0  0  0  0  0  0  0  0  0  0  0  0
  -35.4555    5.5539  -42.3705 N   0  0  0  0  0  0  0  0  0  0  0  0
  -34.3543    5.2488  -43.2948 C   0  0  0  0  0  0  0  0  0  0  0  0
  -34.4387    3.7802  -43.7173 C   0  0  0  0  0  0  0  0  0  0  0  0
  -35.3504    7.1634  -41.8023 X   0  0  0  0  0  0  0  0  0  0  0  0
  1  2  1  0  0  0  0
  2  3  1  0  0  0  0
  3  4  1  0  0  0  0
  4  5  1  0  0  0  0
  5  6  1  0  0  0  0
  5 10  1  0  0  0  0
  6  7  1  0  0  0  0
  7  8  1  0  0  0  0
  8  9  1  0  0  0  0
  8 11  1  0  0  0  0
  9 10  1  0  0  0  0
M  END
> <Index>
1159

> <PropertyFieldDistance>
nan

$$$$
2910512
BBcorina  12272117083D 1   1.00000     0.00000 
CORINA 4.3.0 0026  30.10.2019
 11 11  0  0  0  0  0  0  0  0999 V2000
  -30.5160    4.6647  -43.0396 C   0  0  0  0  0  0  0  0  0  0  0  0
  -31.8459    4.7880  -43.6092 O   0  0  0  0  0  0  0  0  0  0  0  0
  -32.8686    4.9108  -42.7485 C   0  0  0  0  0  0  0  0  0  0  0  0
  -32.6594    4.9153  -41.5585 O   0  0  0  0  0  0  0  0  0  0  0  0
  -34.2769    5.0496  -43.2665 C   0  0  0  0  0  0  0  0  0  0  0  0
  -35.2461    5.1675  -42.0870 C   0  0  0  0  0  0  0  0  0  0  0  0
  -36.6793    5.2476  -42.6202 C   0  0  0  0  0  0  0  0  0  0  0  0
  -36.9723    4.0087  -43.4695 C   0  0  0  0  0  0  0  0  0  0  0  0
  -36.0191    3.9414  -44.5845 N   0  0  0  0  0  0  0  0  0  0  0  0
  -34.6396    3.8164  -44.0971 C   0  0  0  0  0  0  0  0  0  0  0  0
  -36.4111    2.6622  -45.6495 X   0  0  0  0  0  0  0  0  0  0  0  0
  1  2  1  0  0  0  0
  2  3  1  0  0  0  0
  3  4  2  0  0  0  0
  3  5  1  0  0  0  0
  5  6  1  0  0  0  0
  5 10  1  0  0  0  0
  6  7  1  0  0  0  0
  7  8  1  0  0  0  0
  8  9  1  0  0  0  0
  9 10  1  0  0  0  0
  9 11  1  0  0  0  0
M  END
> <Index>
1188

> <PropertyFieldDistance>
nan

$$$$
211578
BBcorina  12272117083D 1   1.00000     0.00000 
CORINA 4.3.0 0026  30.10.2019
  8  8  0  0  0  0  0  0  0  0999 V2000
  -37.5657    5.3164  -41.4221 C   0  0  0  0  0  0  0  0  0  0  0  0
  -36.6293    5.2502  -42.6303 C   0  0  0  0  0  0  0  0  0  0  0  0
  -36.9723    4.0211  -43.4763 C   0  0  0  0  0  0  0  0  0  0  0  0
  -36.0215    3.9203  -44.5930 N   0  0  0  0  0  0  0  0  0  0  0  0
  -34.6419    3.8204  -44.0951 C   0  0  0  0  0  0  0  0  0  0  0  0
  -34.3222    5.0515  -43.2429 C   0  0  0  0  0  0  0  0  0  0  0  0
  -35.2751    5.1506  -42.1812 O   0  0  0  0  0  0  0  0  0  0  0  0
  -36.4046    2.5974  -45.6065 X   0  0  0  0  0  0  0  0  0  0  0  0
  1  2  1  0  0  0  0
  2  3  1  0  0  0  0
  2  7  1  0  0  0  0
  3  4  1  0  0  0  0
  4  5  1  0  0  0  0
  4  8  1  0  0  0  0
  5  6  1  0  0  0  0
  6  7  1  0  0  0  0
M  END
> <Index>
1199

> <PropertyFieldDistance>
nan

$$$$
245100
BBcorina  12272117083D 1   1.00000     0.00000 
CORINA 4.3.0 0026  30.10.2019
 14 14  0  0  0  0  0  0  0  0999 V2000
  -36.6853    0.1853  -46.5782 C   0  0  0  0  0  0  0  0  0  0  0  0
  -35.6151    0.1540  -45.4852 C   0  0  0  0  0  0  0  0  0  0  0  0
  -36.1531   -0.5980  -44.2662 C   0  0  0  0  0  0  0  0  0  0  0  0
  -34.3674   -0.5568  -46.0133 C   0  0  0  0  0  0  0  0  0  0  0  0
  -35.2732    1.5126  -45.1036 O   0  0  0  0  0  0  0  0  0  0  0  0
  -36.2667    2.2788  -44.6153 C   0  0  0  0  0  0  0  0  0  0  0  0
  -37.3889    1.8247  -44.5109 O   0  0  0  0  0  0  0  0  0  0  0  0
  -36.0166    3.5496  -44.2423 N   0  0  0  0  0  0  0  0  0  0  0  0
  -37.0874    4.4037  -43.7065 C   0  0  0  0  0  0  0  0  0  0  0  0
  -36.6071    5.0158  -42.3862 C   0  0  0  0  0  0  0  0  0  0  0  0
  -35.3220    5.6934  -42.6033 N   0  0  0  0  0  0  0  0  0  0  0  0
  -34.2808    4.7422  -43.0144 C   0  0  0  0  0  0  0  0  0  0  0  0
  -34.6644    4.1171  -44.3548 C   0  0  0  0  0  0  0  0  0  0  0  0
  -34.8436    6.5609  -41.2095 X   0  0  0  0  0  0  0  0  0  0  0  0
  1  2  1  0  0  0  0
  2  3  1  0  0  0  0
  2  4  1  0  0  0  0
  2  5  1  0  0  0  0
  5  6  1  0  0  0  0
  6  7  2  0  0  0  0
  6  8  1  0  0  0  0
  8  9  1  0  0  0  0
  8 13  1  0  0  0  0
  9 10  1  0  0  0  0
 10 11  1  0  0  0  0
 11 12  1  0  0  0  0
 11 14  1  0  0  0  0
 12 13  1  0  0  0  0
M  END
> <Index>
1221

> <PropertyFieldDistance>
nan

$$$$
339734
BBcorina  12272117083D 1   1.00000     0.00000 
CORINA 4.3.0 0026  30.10.2019
 14 15  0  0  0  0  0  0  0  0999 V2000
  -35.2517    5.7273  -42.7085 N   0  0  0  0  0  0  0  0  0  0  0  0
  -36.5104    5.0792  -42.3144 C   0  0  0  0  0  0  0  0  0  0  0  0
  -37.0927    4.3292  -43.5147 C   0  0  0  0  0  0  0  0  0  0  0  0
  -36.1182    3.3364  -43.9885 N   0  0  0  0  0  0  0  0  0  0  0  0
  -36.6706    2.5427  -45.0944 C   0  0  0  0  0  0  0  0  0  0  0  0
  -35.5754    1.7129  -45.7132 C   0  0  0  0  0  0  0  0  0  0  0  0
  -35.3096    0.4369  -45.2410 C   0  0  0  0  0  0  0  0  0  0  0  0
  -34.2928   -0.2904  -45.8411 C   0  0  0  0  0  0  0  0  0  0  0  0
  -33.5833    0.2768  -46.8823 C   0  0  0  0  0  0  0  0  0  0  0  0
  -33.8635    1.4941  -47.3054 N   0  0  0  0  0  0  0  0  0  0  0  0
  -34.8232    2.2144  -46.7587 C   0  0  0  0  0  0  0  0  0  0  0  0
  -34.8596    3.9845  -44.3828 C   0  0  0  0  0  0  0  0  0  0  0  0
  -34.2772    4.7344  -43.1823 C   0  0  0  0  0  0  0  0  0  0  0  0
  -34.6088    6.6511  -41.4213 X   0  0  0  0  0  0  0  0  0  0  0  0
  1  2  1  0  0  0  0
  1 13  1  0  0  0  0
  1 14  1  0  0  0  0
  2  3  1  0  0  0  0
  3  4  1  0  0  0  0
  4  5  1  0  0  0  0
  4 12  1  0  0  0  0
  5  6  1  0  0  0  0
  6  7  2  0  0  0  0
  6 11  1  0  0  0  0
  7  8  1  0  0  0  0
  8  9  2  0  0  0  0
  9 10  1  0  0  0  0
 10 11  2  0  0  0  0
 12 13  1  0  0  0  0
M  END
> <Index>
1222

> <PropertyFieldDistance>
nan

$$$$
215668
BBcorina  12272117083D 1   1.00000     0.00000 
CORINA 4.3.0 0026  30.10.2019
 14 14  0  0  0  0  0  0  0  0999 V2000
  -37.8645    6.3144  -43.0126 C   0  0  0  0  0  0  0  0  0  0  0  0
  -36.7090    5.3163  -42.9154 C   0  0  0  0  0  0  0  0  0  0  0  0
  -37.0049    4.1036  -43.8019 C   0  0  0  0  0  0  0  0  0  0  0  0
  -35.8586    3.1840  -43.7641 N   0  0  0  0  0  0  0  0  0  0  0  0
  -34.6352    3.8575  -44.2234 C   0  0  0  0  0  0  0  0  0  0  0  0
  -34.3629    5.0726  -43.3328 C   0  0  0  0  0  0  0  0  0  0  0  0
  -34.1055    4.6080  -41.8980 C   0  0  0  0  0  0  0  0  0  0  0  0
  -35.5000    5.9396  -43.3572 O   0  0  0  0  0  0  0  0  0  0  0  0
  -36.1253    1.9774  -44.5585 C   0  0  0  0  0  0  0  0  0  0  0  0
  -36.3897    2.3724  -46.0128 C   0  0  0  0  0  0  0  0  0  0  0  0
  -37.3513    1.2564  -43.9948 C   0  0  0  0  0  0  0  0  0  0  0  0
  -34.9124    1.0468  -44.4952 C   0  0  0  0  0  0  0  0  0  0  0  0
  -34.6586    0.6676  -43.0989 N   0  0  0  0  0  0  0  0  0  0  0  0
  -33.3081   -0.3748  -42.9827 X   0  0  0  0  0  0  0  0  0  0  0  0
  1  2  1  0  0  0  0
  2  3  1  0  0  0  0
  2  8  1  0  0  0  0
  3  4  1  0  0  0  0
  4  5  1  0  0  0  0
  4  9  1  0  0  0  0
  5  6  1  0  0  0  0
  6  7  1  0  0  0  0
  6  8  1  0  0  0  0
  9 10  1  0  0  0  0
  9 11  1  0  0  0  0
  9 12  1  0  0  0  0
 12 13  1  0  0  0  0
 13 14  1  0  0  0  0
M  END
> <Index>
1226

> <PropertyFieldDistance>
nan

$$$$
238759
BBcorina  12272117083D 1   1.00000     0.00000 
CORINA 4.3.0 0026  30.10.2019
 14 15  0  0  0  0  0  0  0  0999 V2000
  -37.5162   -0.4078  -47.6816 N   0  0  0  0  0  0  0  0  0  0  0  0
  -37.0878    0.5209  -46.7249 C   0  0  0  0  0  0  0  0  0  0  0  0
  -35.8094    0.4306  -46.1771 C   0  0  0  0  0  0  0  0  0  0  0  0
  -35.4283    1.3695  -45.2357 C   0  0  0  0  0  0  0  0  0  0  0  0
  -36.3267    2.3656  -44.8695 C   0  0  0  0  0  0  0  0  0  0  0  0
  -37.5332    2.4209  -45.4106 N   0  0  0  0  0  0  0  0  0  0  0  0
  -37.9301    1.5419  -46.3114 C   0  0  0  0  0  0  0  0  0  0  0  0
  -35.9526    3.3161  -43.9222 N   0  0  0  0  0  0  0  0  0  0  0  0
  -37.0409    4.2742  -43.6789 C   0  0  0  0  0  0  0  0  0  0  0  0
  -36.6103    5.2619  -42.5913 C   0  0  0  0  0  0  0  0  0  0  0  0
  -35.3997    5.9085  -42.9937 O   0  0  0  0  0  0  0  0  0  0  0  0
  -34.3185    5.0051  -43.2386 C   0  0  0  0  0  0  0  0  0  0  0  0
  -34.7258    4.0147  -44.3327 C   0  0  0  0  0  0  0  0  0  0  0  0
  -36.4687   -1.6624  -48.1844 X   0  0  0  0  0  0  0  0  0  0  0  0
  1  2  1  0  0  0  0
  1 14  1  0  0  0  0
  2  3  2  0  0  0  0
  2  7  1  0  0  0  0
  3  4  1  0  0  0  0
  4  5  2  0  0  0  0
  5  6  1  0  0  0  0
  5  8  1  0  0  0  0
  6  7  2  0  0  0  0
  8  9  1  0  0  0  0
  8 13  1  0  0  0  0
  9 10  1  0  0  0  0
 10 11  1  0  0  0  0
 11 12  1  0  0  0  0
 12 13  1  0  0  0  0
M  END
> <Index>
1240

> <PropertyFieldDistance>
nan

$$$$
339752
BBcorina  12272117083D 1   1.00000     0.00000 
CORINA 4.3.0 0026  30.10.2019
 14 15  0  0  0  0  0  0  0  0999 V2000
  -32.8574    1.7207  -48.1620 C   0  0  0  0  0  0  0  0  0  0  0  0
  -33.8679    1.3735  -47.0993 C   0  0  0  0  0  0  0  0  0  0  0  0
  -34.7682    2.1783  -46.6451 N   0  0  0  0  0  0  0  0  0  0  0  0
  -35.5753    1.7129  -45.7131 C   0  0  0  0  0  0  0  0  0  0  0  0
  -36.6706    2.5428  -45.0944 C   0  0  0  0  0  0  0  0  0  0  0  0
  -36.1183    3.3364  -43.9885 N   0  0  0  0  0  0  0  0  0  0  0  0
  -37.0927    4.3292  -43.5148 C   0  0  0  0  0  0  0  0  0  0  0  0
  -36.5103    5.0791  -42.3143 C   0  0  0  0  0  0  0  0  0  0  0  0
  -35.2517    5.7273  -42.7086 N   0  0  0  0  0  0  0  0  0  0  0  0
  -34.2772    4.7344  -43.1823 C   0  0  0  0  0  0  0  0  0  0  0  0
  -34.8596    3.9845  -44.3827 C   0  0  0  0  0  0  0  0  0  0  0  0
  -35.3430    0.4446  -45.3618 C   0  0  0  0  0  0  0  0  0  0  0  0
  -33.9827   -0.1419  -46.3157 S   0  0  0  0  0  0  0  0  0  0  0  0
  -34.6088    6.6511  -41.4213 X   0  0  0  0  0  0  0  0  0  0  0  0
  1  2  1  0  0  0  0
  2  3  2  0  0  0  0
  2 13  1  0  0  0  0
  3  4  1  0  0  0  0
  4  5  1  0  0  0  0
  4 12  2  0  0  0  0
  5  6  1  0  0  0  0
  6  7  1  0  0  0  0
  6 11  1  0  0  0  0
  7  8  1  0  0  0  0
  8  9  1  0  0  0  0
  9 10  1  0  0  0  0
  9 14  1  0  0  0  0
 10 11  1  0  0  0  0
 12 13  1  0  0  0  0
M  END
> <Index>
1242

> <PropertyFieldDistance>
nan

$$$$
294200
BBcorina  12272117083D 1   1.00000     0.00000 
CORINA 4.3.0 0026  30.10.2019
 15 16  0  0  0  0  0  0  0  0999 V2000
  -36.4277    2.6266  -45.2577 C   0  0  0  0  0  0  0  0  0  0  0  0
  -35.9859    3.2989  -44.0286 N   0  0  0  0  0  0  0  0  0  0  0  0
  -37.0073    4.2389  -43.5462 C   0  0  0  0  0  0  0  0  0  0  0  0
  -36.5441    4.8577  -42.2252 C   0  0  0  0  0  0  0  0  0  0  0  0
  -35.2593    5.5407  -42.4313 N   0  0  0  0  0  0  0  0  0  0  0  0
  -34.2378    4.6008  -42.9136 C   0  0  0  0  0  0  0  0  0  0  0  0
  -34.7011    3.9819  -44.2346 C   0  0  0  0  0  0  0  0  0  0  0  0
  -34.8403    6.1784  -41.2655 C   0  0  0  0  0  0  0  0  0  0  0  0
  -33.6386    6.8776  -41.2585 C   0  0  0  0  0  0  0  0  0  0  0  0
  -33.2344    7.5123  -40.0978 C   0  0  0  0  0  0  0  0  0  0  0  0
  -34.0481    7.4151  -38.9704 C   0  0  0  0  0  0  0  0  0  0  0  0
  -33.6761    8.0374  -37.7721 N   0  0  0  0  0  0  0  0  0  0  0  0
  -35.2308    6.6953  -39.0500 C   0  0  0  0  0  0  0  0  0  0  0  0
  -35.5882    6.1072  -40.1759 N   0  0  0  0  0  0  0  0  0  0  0  0
  -32.2156    8.9224  -37.6857 X   0  0  0  0  0  0  0  0  0  0  0  0
  1  2  1  0  0  0  0
  2  3  1  0  0  0  0
  2  7  1  0  0  0  0
  3  4  1  0  0  0  0
  4  5  1  0  0  0  0
  5  6  1  0  0  0  0
  5  8  1  0  0  0  0
  6  7  1  0  0  0  0
  8  9  2  0  0  0  0
  8 14  1  0  0  0  0
  9 10  1  0  0  0  0
 10 11  2  0  0  0  0
 11 12  1  0  0  0  0
 11 13  1  0  0  0  0
 12 15  1  0  0  0  0
 13 14  2  0  0  0  0
M  END
> <Index>
1249

> <PropertyFieldDistance>
nan

$$$$
244739
BBcorina  12272117083D 1   1.00000     0.00000 
CORINA 4.3.0 0026  30.10.2019
 14 15  0  0  0  0  0  0  0  0999 V2000
  -36.0101    3.7523  -44.4405 N   0  0  0  0  0  0  0  0  0  0  0  0
  -36.9929    4.5932  -43.7441 C   0  0  0  0  0  0  0  0  0  0  0  0
  -36.6200    4.6868  -42.2607 C   0  0  0  0  0  0  0  0  0  0  0  0
  -35.2259    5.1439  -42.1573 N   0  0  0  0  0  0  0  0  0  0  0  0
  -34.2019    4.4375  -42.9420 C   0  0  0  0  0  0  0  0  0  0  0  0
  -34.6691    4.3501  -44.3940 C   0  0  0  0  0  0  0  0  0  0  0  0
  -34.8963    6.1860  -41.3686 C   0  0  0  0  0  0  0  0  0  0  0  0
  -35.7157    6.6486  -40.5986 O   0  0  0  0  0  0  0  0  0  0  0  0
  -33.6585    6.7151  -41.4336 N   0  0  0  0  0  0  0  0  0  0  0  0
  -33.1907    7.9002  -40.6918 C   0  0  0  0  0  0  0  0  0  0  0  0
  -32.0101    8.4518  -41.5294 C   0  0  0  0  0  0  0  0  0  0  0  0
  -31.3451    7.1425  -42.0305 C   0  0  0  0  0  0  0  0  0  0  0  0
  -32.5515    6.2069  -42.2568 C   0  0  0  0  0  0  0  0  0  0  0  0
  -36.4925    3.4541  -46.0538 X   0  0  0  0  0  0  0  0  0  0  0  0
  1  2  1  0  0  0  0
  1  6  1  0  0  0  0
  1 14  1  0  0  0  0
  2  3  1  0  0  0  0
  3  4  1  0  0  0  0
  4  5  1  0  0  0  0
  4  7  1  0  0  0  0
  5  6  1  0  0  0  0
  7  8  2  0  0  0  0
  7  9  1  0  0  0  0
  9 10  1  0  0  0  0
  9 13  1  0  0  0  0
 10 11  1  0  0  0  0
 11 12  1  0  0  0  0
 12 13  1  0  0  0  0
M  END
> <Index>
1262

> <PropertyFieldDistance>
nan

$$$$
236872
BBcorina  12272117083D 1   1.00000     0.00000 
CORINA 4.3.0 0026  30.10.2019
 10 11  0  0  0  0  0  0  0  0999 V2000
  -35.9582    3.4709  -44.1553 N   0  0  0  0  0  0  0  0  0  0  0  0
  -36.9730    4.4853  -43.8365 C   0  0  0  0  0  0  0  0  0  0  0  0
  -36.7059    5.0380  -42.4314 C   0  0  0  0  0  0  0  0  0  0  0  0
  -35.2389    5.4018  -42.3407 C   0  0  0  0  0  0  0  0  0  0  0  0
  -34.5006    6.4126  -41.1091 S   0  0  0  0  0  0  0  0  0  0  0  0
  -32.9196    6.2200  -41.8534 C   0  0  0  0  0  0  0  0  0  0  0  0
  -33.0247    5.4468  -42.9307 C   0  0  0  0  0  0  0  0  0  0  0  0
  -34.3037    4.9832  -43.2164 C   0  0  0  0  0  0  0  0  0  0  0  0
  -34.6465    4.0862  -44.3981 C   0  0  0  0  0  0  0  0  0  0  0  0
  -36.4434    2.5162  -45.4884 X   0  0  0  0  0  0  0  0  0  0  0  0
  1  2  1  0  0  0  0
  1  9  1  0  0  0  0
  1 10  1  0  0  0  0
  2  3  1  0  0  0  0
  3  4  1  0  0  0  0
  4  5  1  0  0  0  0
  4  8  2  0  0  0  0
  5  6  1  0  0  0  0
  6  7  2  0  0  0  0
  7  8  1  0  0  0  0
  8  9  1  0  0  0  0
M  END
> <Index>
1269

> <PropertyFieldDistance>
nan

$$$$
261964
BBcorina  12272117083D 1   1.00000     0.00000 
CORINA 4.3.0 0026  30.10.2019
 14 15  0  0  0  0  0  0  0  0999 V2000
  -37.4983   -0.4895  -47.5885 N   0  0  0  0  0  0  0  0  0  0  0  0
  -37.0732    0.4650  -46.6560 C   0  0  0  0  0  0  0  0  0  0  0  0
  -35.7890    0.4026  -46.1179 C   0  0  0  0  0  0  0  0  0  0  0  0
  -35.4099    1.3694  -45.2041 C   0  0  0  0  0  0  0  0  0  0  0  0
  -36.3197    2.3583  -44.8468 C   0  0  0  0  0  0  0  0  0  0  0  0
  -37.5315    2.3867  -45.3782 N   0  0  0  0  0  0  0  0  0  0  0  0
  -37.9250    1.4838  -46.2563 C   0  0  0  0  0  0  0  0  0  0  0  0
  -35.9495    3.3336  -43.9234 N   0  0  0  0  0  0  0  0  0  0  0  0
  -37.0466    4.2817  -43.6910 C   0  0  0  0  0  0  0  0  0  0  0  0
  -36.6587    5.2477  -42.5692 C   0  0  0  0  0  0  0  0  0  0  0  0
  -35.3854    5.9993  -42.9672 C   0  0  0  0  0  0  0  0  0  0  0  0
  -34.2710    4.9880  -43.2501 C   0  0  0  0  0  0  0  0  0  0  0  0
  -34.7292    4.0285  -44.3525 C   0  0  0  0  0  0  0  0  0  0  0  0
  -36.4392   -1.7412  -48.0739 X   0  0  0  0  0  0  0  0  0  0  0  0
  1  2  1  0  0  0  0
  1 14  1  0  0  0  0
  2  3  2  0  0  0  0
  2  7  1  0  0  0  0
  3  4  1  0  0  0  0
  4  5  2  0  0  0  0
  5  6  1  0  0  0  0
  5  8  1  0  0  0  0
  6  7  2  0  0  0  0
  8  9  1  0  0  0  0
  8 13  1  0  0  0  0
  9 10  1  0  0  0  0
 10 11  1  0  0  0  0
 11 12  1  0  0  0  0
 12 13  1  0  0  0  0
M  END
> <Index>
1275

> <PropertyFieldDistance>
nan

$$$$
237620
BBcorina  12272117083D 1   1.00000     0.00000 
CORINA 4.3.0 0026  30.10.2019
 11 12  0  0  0  0  0  0  0  0999 V2000
  -34.9734    6.9062  -41.8779 N   0  0  0  0  0  0  0  0  0  0  0  0
  -35.3835    6.0134  -42.9700 C   0  0  0  0  0  0  0  0  0  0  0  0
  -36.6552    5.2624  -42.5668 C   0  0  0  0  0  0  0  0  0  0  0  0
  -37.0433    4.2897  -43.6828 C   0  0  0  0  0  0  0  0  0  0  0  0
  -35.9454    3.3417  -43.9110 N   0  0  0  0  0  0  0  0  0  0  0  0
  -34.7262    4.0356  -44.3451 C   0  0  0  0  0  0  0  0  0  0  0  0
  -34.2692    5.0008  -43.2488 C   0  0  0  0  0  0  0  0  0  0  0  0
  -36.3354    2.3075  -44.8786 C   0  0  0  0  0  0  0  0  0  0  0  0
  -35.2977    1.2385  -45.2268 C   0  0  0  0  0  0  0  0  0  0  0  0
  -36.5038    0.8792  -44.3568 C   0  0  0  0  0  0  0  0  0  0  0  0
  -35.6841    8.4519  -42.0506 X   0  0  0  0  0  0  0  0  0  0  0  0
  1  2  1  0  0  0  0
  1 11  1  0  0  0  0
  2  3  1  0  0  0  0
  2  7  1  0  0  0  0
  3  4  1  0  0  0  0
  4  5  1  0  0  0  0
  5  6  1  0  0  0  0
  5  8  1  0  0  0  0
  6  7  1  0  0  0  0
  8  9  1  0  0  0  0
  8 10  1  0  0  0  0
  9 10  1  0  0  0  0
M  END
> <Index>
1277

> <PropertyFieldDistance>
nan

$$$$
259228
BBcorina  12272117083D 1   1.00000     0.00000 
CORINA 4.3.0 0026  30.10.2019
 15 16  0  0  0  0  0  0  0  0999 V2000
  -35.6429    7.1658  -42.4587 N   0  0  0  0  0  0  0  0  0  0  0  0
  -35.6150    5.7038  -42.5986 C   0  0  0  0  0  0  0  0  0  0  0  0
  -36.9133    5.2294  -43.2553 C   0  0  0  0  0  0  0  0  0  0  0  0
  -36.8954    3.7018  -43.3679 C   0  0  0  0  0  0  0  0  0  0  0  0
  -35.6758    3.2943  -44.0787 N   0  0  0  0  0  0  0  0  0  0  0  0
  -34.3767    3.7661  -43.5804 C   0  0  0  0  0  0  0  0  0  0  0  0
  -34.4232    5.2975  -43.4686 C   0  0  0  0  0  0  0  0  0  0  0  0
  -35.7470    2.4983  -45.1640 C   0  0  0  0  0  0  0  0  0  0  0  0
  -34.7268    2.1092  -45.7012 O   0  0  0  0  0  0  0  0  0  0  0  0
  -37.0540    2.0962  -45.6940 C   0  0  0  0  0  0  0  0  0  0  0  0
  -37.2724    1.4046  -46.8509 C   0  0  0  0  0  0  0  0  0  0  0  0
  -38.6615    1.2391  -46.9659 C   0  0  0  0  0  0  0  0  0  0  0  0
  -39.2231    1.8294  -45.8878 C   0  0  0  0  0  0  0  0  0  0  0  0
  -38.2509    2.3396  -45.1208 O   0  0  0  0  0  0  0  0  0  0  0  0
  -35.9046    7.9211  -43.9704 X   0  0  0  0  0  0  0  0  0  0  0  0
  1  2  1  0  0  0  0
  1 15  1  0  0  0  0
  2  3  1  0  0  0  0
  2  7  1  0  0  0  0
  3  4  1  0  0  0  0
  4  5  1  0  0  0  0
  5  6  1  0  0  0  0
  5  8  1  0  0  0  0
  6  7  1  0  0  0  0
  8  9  2  0  0  0  0
  8 10  1  0  0  0  0
 10 11  2  0  0  0  0
 10 14  1  0  0  0  0
 11 12  1  0  0  0  0
 12 13  2  0  0  0  0
 13 14  1  0  0  0  0
M  END
> <Index>
1284

> <PropertyFieldDistance>
nan

$$$$
294156
BBcorina  12272117083D 1   1.00000     0.00000 
CORINA 4.3.0 0026  30.10.2019
 16 17  0  0  0  0  0  0  0  0999 V2000
  -36.4275    2.6267  -45.2574 C   0  0  0  0  0  0  0  0  0  0  0  0
  -35.9858    3.2991  -44.0283 N   0  0  0  0  0  0  0  0  0  0  0  0
  -37.0072    4.2390  -43.5459 C   0  0  0  0  0  0  0  0  0  0  0  0
  -36.5440    4.8579  -42.2249 C   0  0  0  0  0  0  0  0  0  0  0  0
  -35.2592    5.5409  -42.4310 N   0  0  0  0  0  0  0  0  0  0  0  0
  -34.2378    4.6010  -42.9133 C   0  0  0  0  0  0  0  0  0  0  0  0
  -34.7010    3.9821  -44.2342 C   0  0  0  0  0  0  0  0  0  0  0  0
  -34.8412    6.1772  -41.2678 C   0  0  0  0  0  0  0  0  0  0  0  0
  -33.6391    6.8770  -41.2590 C   0  0  0  0  0  0  0  0  0  0  0  0
  -33.2377    7.5099  -40.0961 C   0  0  0  0  0  0  0  0  0  0  0  0
  -34.0498    7.4120  -38.9742 C   0  0  0  0  0  0  0  0  0  0  0  0
  -33.6498    8.0809  -37.6844 C   0  0  0  0  0  0  0  0  0  0  0  0
  -32.8479    7.1507  -36.8785 N   0  0  0  0  0  0  0  0  0  0  0  0
  -35.2277    6.6960  -39.0524 C   0  0  0  0  0  0  0  0  0  0  0  0
  -35.5881    6.1070  -40.1767 N   0  0  0  0  0  0  0  0  0  0  0  0
  -32.3721    7.8715  -35.4027 X   0  0  0  0  0  0  0  0  0  0  0  0
  1  2  1  0  0  0  0
  2  3  1  0  0  0  0
  2  7  1  0  0  0  0
  3  4  1  0  0  0  0
  4  5  1  0  0  0  0
  5  6  1  0  0  0  0
  5  8  1  0  0  0  0
  6  7  1  0  0  0  0
  8  9  2  0  0  0  0
  8 15  1  0  0  0  0
  9 10  1  0  0  0  0
 10 11  2  0  0  0  0
 11 12  1  0  0  0  0
 11 14  1  0  0  0  0
 12 13  1  0  0  0  0
 13 16  1  0  0  0  0
 14 15  2  0  0  0  0
M  END
> <Index>
1285

> <PropertyFieldDistance>
nan

$$$$
237950
BBcorina  12272117083D 1   1.00000     0.00000 
CORINA 4.3.0 0026  30.10.2019
 10 10  0  0  0  0  0  0  0  0999 V2000
  -36.3534    0.6323  -46.6879 N   0  0  0  0  0  0  0  0  0  0  0  0
  -35.6551    1.6200  -45.8543 C   0  0  0  0  0  0  0  0  0  0  0  0
  -36.6645    2.4228  -45.0747 C   0  0  0  0  0  0  0  0  0  0  0  0
  -37.8489    2.1948  -45.2012 O   0  0  0  0  0  0  0  0  0  0  0  0
  -36.2510    3.3942  -44.2370 N   0  0  0  0  0  0  0  0  0  0  0  0
  -37.1237    4.2497  -43.4196 C   0  0  0  0  0  0  0  0  0  0  0  0
  -36.2133    5.2258  -42.6450 C   0  0  0  0  0  0  0  0  0  0  0  0
  -34.9168    5.2422  -43.4972 C   0  0  0  0  0  0  0  0  0  0  0  0
  -34.8483    3.7709  -43.9838 C   0  0  0  0  0  0  0  0  0  0  0  0
  -35.2423   -0.3023  -47.5912 X   0  0  0  0  0  0  0  0  0  0  0  0
  1  2  1  0  0  0  0
  1 10  1  0  0  0  0
  2  3  1  0  0  0  0
  3  4  2  0  0  0  0
  3  5  1  0  0  0  0
  5  6  1  0  0  0  0
  5  9  1  0  0  0  0
  6  7  1  0  0  0  0
  7  8  1  0  0  0  0
  8  9  1  0  0  0  0
M  END
> <Index>
1286

> <PropertyFieldDistance>
nan

$$$$
245013
BBcorina  12272117083D 1   1.00000     0.00000 
CORINA 4.3.0 0026  30.10.2019
 13 13  0  0  0  0  0  0  0  0999 V2000
  -37.3098    5.8036  -41.4466 C   0  0  0  0  0  0  0  0  0  0  0  0
  -36.5429    5.4197  -42.7136 C   0  0  0  0  0  0  0  0  0  0  0  0
  -36.9886    4.0312  -43.1799 C   0  0  0  0  0  0  0  0  0  0  0  0
  -36.1943    3.6341  -44.3516 N   0  0  0  0  0  0  0  0  0  0  0  0
  -36.6301    2.3288  -44.8652 C   0  0  0  0  0  0  0  0  0  0  0  0
  -35.6329    1.8350  -45.9154 C   0  0  0  0  0  0  0  0  0  0  0  0
  -36.0869    0.4754  -46.4502 C   0  0  0  0  0  0  0  0  0  0  0  0
  -35.1294    0.0013  -47.4585 N   0  0  0  0  0  0  0  0  0  0  0  0
  -34.7602    3.6211  -44.0286 C   0  0  0  0  0  0  0  0  0  0  0  0
  -34.3365    5.0139  -43.5548 C   0  0  0  0  0  0  0  0  0  0  0  0
  -32.8635    4.9871  -43.1420 C   0  0  0  0  0  0  0  0  0  0  0  0
  -35.1402    5.3960  -42.4352 O   0  0  0  0  0  0  0  0  0  0  0  0
  -35.6003   -1.5190  -48.0838 X   0  0  0  0  0  0  0  0  0  0  0  0
  1  2  1  0  0  0  0
  2  3  1  0  0  0  0
  2 12  1  0  0  0  0
  3  4  1  0  0  0  0
  4  5  1  0  0  0  0
  4  9  1  0  0  0  0
  5  6  1  0  0  0  0
  6  7  1  0  0  0  0
  7  8  1  0  0  0  0
  8 13  1  0  0  0  0
  9 10  1  0  0  0  0
 10 11  1  0  0  0  0
 10 12  1  0  0  0  0
M  END
> <Index>
1316

> <PropertyFieldDistance>
nan

$$$$
3219768
BBcorina  12272117083D 1   1.00000     0.00000 
CORINA 4.3.0 0026  30.10.2019
 12 12  0  0  0  0  0  0  0  0999 V2000
  -36.1026    0.4865  -46.4864 C   0  0  0  0  0  0  0  0  0  0  0  0
  -35.7984    1.9262  -46.0673 C   0  0  0  0  0  0  0  0  0  0  0  0
  -36.2825    2.8872  -47.1551 C   0  0  0  0  0  0  0  0  0  0  0  0
  -36.5187    2.2380  -44.7539 C   0  0  0  0  0  0  0  0  0  0  0  0
  -36.1324    3.5771  -44.2896 N   0  0  0  0  0  0  0  0  0  0  0  0
  -36.9750    4.0081  -43.1667 C   0  0  0  0  0  0  0  0  0  0  0  0
  -36.6429    5.4577  -42.8054 C   0  0  0  0  0  0  0  0  0  0  0  0
  -35.1630    5.5577  -42.4253 C   0  0  0  0  0  0  0  0  0  0  0  0
  -34.3092    5.0573  -43.5938 C   0  0  0  0  0  0  0  0  0  0  0  0
  -34.7089    3.6194  -43.9323 C   0  0  0  0  0  0  0  0  0  0  0  0
  -34.8245    6.9571  -42.1338 N   0  0  0  0  0  0  0  0  0  0  0  0
  -35.2108    7.9694  -43.4568 X   0  0  0  0  0  0  0  0  0  0  0  0
  1  2  1  0  0  0  0
  2  3  1  0  0  0  0
  2  4  1  0  0  0  0
  4  5  1  0  0  0  0
  5  6  1  0  0  0  0
  5 10  1  0  0  0  0
  6  7  1  0  0  0  0
  7  8  1  0  0  0  0
  8  9  1  0  0  0  0
  8 11  1  0  0  0  0
  9 10  1  0  0  0  0
 11 12  1  0  0  0  0
M  END
> <Index>
1321

> <PropertyFieldDistance>
nan

$$$$
294004
BBcorina  12272117083D 1   1.00000     0.00000 
CORINA 4.3.0 0026  30.10.2019
  8  9  0  0  0  0  0  0  0  0999 V2000
  -35.9982    3.6625  -44.4180 N   0  0  0  0  0  0  0  0  0  0  0  0
  -36.5758    3.8952  -43.0462 C   0  0  0  0  0  0  0  0  0  0  0  0
  -36.8987    5.4185  -43.1132 C   0  0  0  0  0  0  0  0  0  0  0  0
  -35.7854    5.9886  -44.0431 C   0  0  0  0  0  0  0  0  0  0  0  0
  -34.9345    4.7288  -44.3864 C   0  0  0  0  0  0  0  0  0  0  0  0
  -34.1801    4.3585  -43.0738 C   0  0  0  0  0  0  0  0  0  0  0  0
  -35.2992    3.7729  -42.1606 C   0  0  0  0  0  0  0  0  0  0  0  0
  -37.1560    3.9878  -45.6337 X   0  0  0  0  0  0  0  0  0  0  0  0
  1  2  1  0  0  0  0
  1  5  1  0  0  0  0
  1  8  1  0  0  0  0
  2  3  1  0  0  0  0
  2  7  1  0  0  0  0
  3  4  1  0  0  0  0
  4  5  1  0  0  0  0
  5  6  1  0  0  0  0
  6  7  1  0  0  0  0
M  END
> <Index>
1323

> <PropertyFieldDistance>
nan

$$$$
515786
BBcorina  12272117083D 1   1.00000     0.00000 
CORINA 4.3.0 0026  30.10.2019
 12 12  0  0  0  0  0  0  0  0999 V2000
  -35.2925   -0.6177  -46.6462 N   0  0  0  0  0  0  0  0  0  0  0  0
  -36.2579    0.2366  -45.9419 C   0  0  0  0  0  0  0  0  0  0  0  0
  -35.5829    1.5523  -45.5490 C   0  0  0  0  0  0  0  0  0  0  0  0
  -36.5733    2.4288  -44.8265 C   0  0  0  0  0  0  0  0  0  0  0  0
  -37.7073    2.0395  -44.6437 O   0  0  0  0  0  0  0  0  0  0  0  0
  -36.1972    3.6430  -44.3784 N   0  0  0  0  0  0  0  0  0  0  0  0
  -37.1447    4.5140  -43.6650 C   0  0  0  0  0  0  0  0  0  0  0  0
  -36.4835    4.9852  -42.3648 C   0  0  0  0  0  0  0  0  0  0  0  0
  -35.2046    5.5494  -42.6646 O   0  0  0  0  0  0  0  0  0  0  0  0
  -34.2785    4.6263  -43.2425 C   0  0  0  0  0  0  0  0  0  0  0  0
  -34.8253    4.1343  -44.5828 C   0  0  0  0  0  0  0  0  0  0  0  0
  -36.0077   -2.1020  -47.1041 X   0  0  0  0  0  0  0  0  0  0  0  0
  1  2  1  0  0  0  0
  1 12  1  0  0  0  0
  2  3  1  0  0  0  0
  3  4  1  0  0  0  0
  4  5  2  0  0  0  0
  4  6  1  0  0  0  0
  6  7  1  0  0  0  0
  6 11  1  0  0  0  0
  7  8  1  0  0  0  0
  8  9  1  0  0  0  0
  9 10  1  0  0  0  0
 10 11  1  0  0  0  0
M  END
> <Index>
1324

> <PropertyFieldDistance>
nan

$$$$
12437752
BBcorina  12272117083D 1   1.00000     0.00000 
CORINA 4.3.0 0026  30.10.2019
 10 10  0  0  0  0  0  0  0  0999 V2000
  -35.2547    5.7265  -42.7100 N   0  0  0  0  0  0  0  0  0  0  0  0
  -36.5131    5.0763  -42.3186 C   0  0  0  0  0  0  0  0  0  0  0  0
  -37.0911    4.3245  -43.5199 C   0  0  0  0  0  0  0  0  0  0  0  0
  -36.1136    3.3333  -43.9907 N   0  0  0  0  0  0  0  0  0  0  0  0
  -36.6618    2.5380  -45.0975 C   0  0  0  0  0  0  0  0  0  0  0  0
  -35.5889    1.7291  -45.6989 C   0  0  0  0  0  0  0  0  0  0  0  0
  -34.7333    1.0840  -46.1784 C   0  0  0  0  0  0  0  0  0  0  0  0
  -34.8553    3.9836  -44.3822 C   0  0  0  0  0  0  0  0  0  0  0  0
  -34.2773    4.7353  -43.1809 C   0  0  0  0  0  0  0  0  0  0  0  0
  -34.6167    6.6523  -41.4217 X   0  0  0  0  0  0  0  0  0  0  0  0
  1  2  1  0  0  0  0
  1  9  1  0  0  0  0
  1 10  1  0  0  0  0
  2  3  1  0  0  0  0
  3  4  1  0  0  0  0
  4  5  1  0  0  0  0
  4  8  1  0  0  0  0
  5  6  1  0  0  0  0
  6  7  3  0  0  0  0
  8  9  1  0  0  0  0
M  END
> <Index>
1329

> <PropertyFieldDistance>
nan

$$$$
261204
BBcorina  12272117083D 1   1.00000     0.00000 
CORINA 4.3.0 0026  30.10.2019
 13 13  0  0  0  0  0  0  0  0999 V2000
  -36.9665    0.6022  -46.4421 C   0  0  0  0  0  0  0  0  0  0  0  0
  -36.9081    1.5095  -45.2115 C   0  0  0  0  0  0  0  0  0  0  0  0
  -36.5402    0.6773  -43.9814 C   0  0  0  0  0  0  0  0  0  0  0  0
  -35.8515    2.5947  -45.4277 C   0  0  0  0  0  0  0  0  0  0  0  0
  -36.2858    3.5078  -46.5760 C   0  0  0  0  0  0  0  0  0  0  0  0
  -36.2620    2.7542  -47.8368 N   0  0  0  0  0  0  0  0  0  0  0  0
  -35.7057    3.3878  -44.1998 N   0  0  0  0  0  0  0  0  0  0  0  0
  -36.9306    4.1522  -43.9178 C   0  0  0  0  0  0  0  0  0  0  0  0
  -36.7563    4.9154  -42.6021 C   0  0  0  0  0  0  0  0  0  0  0  0
  -35.6020    5.7550  -42.6921 O   0  0  0  0  0  0  0  0  0  0  0  0
  -34.3921    5.0431  -42.9652 C   0  0  0  0  0  0  0  0  0  0  0  0
  -34.5413    4.2812  -44.2848 C   0  0  0  0  0  0  0  0  0  0  0  0
  -36.8521    3.7046  -49.1300 X   0  0  0  0  0  0  0  0  0  0  0  0
  1  2  1  0  0  0  0
  2  3  1  0  0  0  0
  2  4  1  0  0  0  0
  4  5  1  0  0  0  0
  4  7  1  0  0  0  0
  5  6  1  0  0  0  0
  6 13  1  0  0  0  0
  7  8  1  0  0  0  0
  7 12  1  0  0  0  0
  8  9  1  0  0  0  0
  9 10  1  0  0  0  0
 10 11  1  0  0  0  0
 11 12  1  0  0  0  0
M  END
> <Index>
1337

> <PropertyFieldDistance>
nan

$$$$
340264
BBcorina  12272117083D 1   1.00000     0.00000 
CORINA 4.3.0 0026  30.10.2019
 12 12  0  0  0  0  0  0  0  0999 V2000
  -35.3318    1.6084  -42.2103 C   0  0  0  0  0  0  0  0  0  0  0  0
  -35.8214    1.9178  -43.9293 S   0  0  0  0  0  0  0  0  0  0  0  0
  -37.1584    1.4910  -44.1515 O   0  0  0  0  0  0  0  0  0  0  0  0
  -34.7770    1.5484  -44.8194 O   0  0  0  0  0  0  0  0  0  0  0  0
  -35.8943    3.5679  -44.0477 N   0  0  0  0  0  0  0  0  0  0  0  0
  -37.1734    4.2988  -43.7535 C   0  0  0  0  0  0  0  0  0  0  0  0
  -36.9577    5.0598  -42.5187 C   0  0  0  0  0  0  0  0  0  0  0  0
  -35.7982    6.0475  -42.5901 C   0  0  0  0  0  0  0  0  0  0  0  0
  -34.6428    5.3139  -42.1450 N   0  0  0  0  0  0  0  0  0  0  0  0
  -33.8264    4.8129  -43.2839 C   0  0  0  0  0  0  0  0  0  0  0  0
  -34.7355    4.3242  -44.4340 C   0  0  0  0  0  0  0  0  0  0  0  0
  -33.6939    6.2541  -41.0775 X   0  0  0  0  0  0  0  0  0  0  0  0
  1  2  1  0  0  0  0
  2  3  2  0  0  0  0
  2  4  2  0  0  0  0
  2  5  1  0  0  0  0
  5  6  1  0  0  0  0
  5 11  1  0  0  0  0
  6  7  1  0  0  0  0
  7  8  1  0  0  0  0
  8  9  1  0  0  0  0
  9 10  1  0  0  0  0
  9 12  1  0  0  0  0
 10 11  1  0  0  0  0
M  END
> <Index>
1350

> <PropertyFieldDistance>
nan

$$$$
262894
BBcorina  12272117083D 1   1.00000     0.00000 
CORINA 4.3.0 0026  30.10.2019
 14 14  0  0  0  0  0  0  0  0999 V2000
  -34.6292   -0.5712  -44.4782 C   0  0  0  0  0  0  0  0  0  0  0  0
  -35.6533    0.5453  -44.2648 C   0  0  0  0  0  0  0  0  0  0  0  0
  -37.0326   -0.0683  -44.0160 C   0  0  0  0  0  0  0  0  0  0  0  0
  -35.7071    1.4329  -45.5098 C   0  0  0  0  0  0  0  0  0  0  0  0
  -36.6122    2.6364  -45.2395 C   0  0  0  0  0  0  0  0  0  0  0  0
  -36.6650    3.5246  -46.4843 C   0  0  0  0  0  0  0  0  0  0  0  0
  -37.5455    4.6726  -46.2297 N   0  0  0  0  0  0  0  0  0  0  0  0
  -36.0769    3.4079  -44.1099 N   0  0  0  0  0  0  0  0  0  0  0  0
  -37.0740    4.3625  -43.6040 C   0  0  0  0  0  0  0  0  0  0  0  0
  -36.4974    5.1009  -42.3932 C   0  0  0  0  0  0  0  0  0  0  0  0
  -35.2759    5.7425  -42.7699 O   0  0  0  0  0  0  0  0  0  0  0  0
  -34.2819    4.8421  -43.2665 C   0  0  0  0  0  0  0  0  0  0  0  0
  -34.8361    4.1010  -44.4861 C   0  0  0  0  0  0  0  0  0  0  0  0
  -37.6330    5.6933  -47.5988 X   0  0  0  0  0  0  0  0  0  0  0  0
  1  2  1  0  0  0  0
  2  3  1  0  0  0  0
  2  4  1  0  0  0  0
  4  5  1  0  0  0  0
  5  6  1  0  0  0  0
  5  8  1  0  0  0  0
  6  7  1  0  0  0  0
  7 14  1  0  0  0  0
  8  9  1  0  0  0  0
  8 13  1  0  0  0  0
  9 10  1  0  0  0  0
 10 11  1  0  0  0  0
 11 12  1  0  0  0  0
 12 13  1  0  0  0  0
M  END
> <Index>
1352

> <PropertyFieldDistance>
nan

$$$$
10264202
BBcorina  12272117083D 1   1.00000     0.00000 
CORINA 4.3.0 0026  30.10.2019
 12 13  0  0  0  0  0  0  0  0999 V2000
  -38.1957    3.3846  -43.2123 C   0  0  0  0  0  0  0  0  0  0  0  0
  -37.0779    4.2969  -43.7215 C   0  0  0  0  0  0  0  0  0  0  0  0
  -35.9272    3.4826  -44.1507 N   0  0  0  0  0  0  0  0  0  0  0  0
  -34.7519    4.3236  -44.4167 C   0  0  0  0  0  0  0  0  0  0  0  0
  -34.1891    4.8623  -43.0957 C   0  0  0  0  0  0  0  0  0  0  0  0
  -35.2954    5.4536  -42.3332 N   0  0  0  0  0  0  0  0  0  0  0  0
  -35.2235    6.3043  -41.2780 C   0  0  0  0  0  0  0  0  0  0  0  0
  -33.7658    6.9087  -40.5544 Cl  0  0  0  0  0  0  0  0  0  0  0  0
  -36.4839    6.6035  -40.8917 C   0  0  0  0  0  0  0  0  0  0  0  0
  -37.3657    5.8990  -41.7391 C   0  0  0  0  0  0  0  0  0  0  0  0
  -36.6163    5.2074  -42.6097 C   0  0  0  0  0  0  0  0  0  0  0  0
  -36.3236    2.5336  -45.5169 X   0  0  0  0  0  0  0  0  0  0  0  0
  1  2  1  0  0  0  0
  2  3  1  0  0  0  0
  2 11  1  0  0  0  0
  3  4  1  0  0  0  0
  3 12  1  0  0  0  0
  4  5  1  0  0  0  0
  5  6  1  0  0  0  0
  6  7  1  0  0  0  0
  6 11  1  0  0  0  0
  7  8  1  0  0  0  0
  7  9  2  0  0  0  0
  9 10  1  0  0  0  0
 10 11  2  0  0  0  0
M  END
> <Index>
1359

> <PropertyFieldDistance>
nan

$$$$
319316
BBcorina  12272117083D 1   1.00000     0.00000 
CORINA 4.3.0 0026  30.10.2019
 14 15  0  0  0  0  0  0  0  0999 V2000
  -37.3010   -1.3268  -46.4010 N   0  0  0  0  0  0  0  0  0  0  0  0
  -36.9664   -0.0690  -45.9043 C   0  0  0  0  0  0  0  0  0  0  0  0
  -35.9109    0.6358  -46.4723 C   0  0  0  0  0  0  0  0  0  0  0  0
  -35.5901    1.8862  -45.9755 C   0  0  0  0  0  0  0  0  0  0  0  0
  -36.3359    2.3887  -44.9106 C   0  0  0  0  0  0  0  0  0  0  0  0
  -37.3746    1.6286  -44.3944 C   0  0  0  0  0  0  0  0  0  0  0  0
  -37.6565    0.4415  -44.8969 N   0  0  0  0  0  0  0  0  0  0  0  0
  -36.0436    3.6481  -44.3725 N   0  0  0  0  0  0  0  0  0  0  0  0
  -36.9575    3.9741  -43.2680 C   0  0  0  0  0  0  0  0  0  0  0  0
  -36.6421    5.3798  -42.7498 C   0  0  0  0  0  0  0  0  0  0  0  0
  -35.2696    5.4390  -42.3522 O   0  0  0  0  0  0  0  0  0  0  0  0
  -34.3517    5.1276  -43.4037 C   0  0  0  0  0  0  0  0  0  0  0  0
  -34.6438    3.7194  -43.9286 C   0  0  0  0  0  0  0  0  0  0  0  0
  -36.4158   -1.9955  -47.7023 X   0  0  0  0  0  0  0  0  0  0  0  0
  1  2  1  0  0  0  0
  1 14  1  0  0  0  0
  2  3  2  0  0  0  0
  2  7  1  0  0  0  0
  3  4  1  0  0  0  0
  4  5  2  0  0  0  0
  5  6  1  0  0  0  0
  5  8  1  0  0  0  0
  6  7  2  0  0  0  0
  8  9  1  0  0  0  0
  8 13  1  0  0  0  0
  9 10  1  0  0  0  0
 10 11  1  0  0  0  0
 11 12  1  0  0  0  0
 12 13  1  0  0  0  0
M  END
> <Index>
1371

> <PropertyFieldDistance>
nan

$$$$
4836788
BBcorina  12272117083D 1   1.00000     0.00000 
CORINA 4.3.0 0026  30.10.2019
 13 13  0  0  0  0  0  0  0  0999 V2000
  -34.9487    6.4499  -41.5446 C   0  0  0  0  0  0  0  0  0  0  0  0
  -35.2902    5.5304  -42.6382 N   0  0  0  0  0  0  0  0  0  0  0  0
  -36.5891    4.8863  -42.3984 C   0  0  0  0  0  0  0  0  0  0  0  0
  -36.9444    3.9997  -43.5943 C   0  0  0  0  0  0  0  0  0  0  0  0
  -35.8891    2.9952  -43.7867 N   0  0  0  0  0  0  0  0  0  0  0  0
  -34.5902    3.6394  -44.0265 C   0  0  0  0  0  0  0  0  0  0  0  0
  -34.2349    4.5259  -42.8307 C   0  0  0  0  0  0  0  0  0  0  0  0
  -36.2306    2.0757  -44.8803 C   0  0  0  0  0  0  0  0  0  0  0  0
  -36.3971    2.8674  -46.1790 C   0  0  0  0  0  0  0  0  0  0  0  0
  -37.5396    1.3553  -44.5508 C   0  0  0  0  0  0  0  0  0  0  0  0
  -35.1110    1.0469  -45.0501 C   0  0  0  0  0  0  0  0  0  0  0  0
  -34.9511    0.2869  -43.8032 N   0  0  0  0  0  0  0  0  0  0  0  0
  -33.7067   -0.8767  -43.9500 X   0  0  0  0  0  0  0  0  0  0  0  0
  1  2  1  0  0  0  0
  2  3  1  0  0  0  0
  2  7  1  0  0  0  0
  3  4  1  0  0  0  0
  4  5  1  0  0  0  0
  5  6  1  0  0  0  0
  5  8  1  0  0  0  0
  6  7  1  0  0  0  0
  8  9  1  0  0  0  0
  8 10  1  0  0  0  0
  8 11  1  0  0  0  0
 11 12  1  0  0  0  0
 12 13  1  0  0  0  0
M  END
> <Index>
1374

> <PropertyFieldDistance>
nan

$$$$
5344862
BBcorina  12272117083D 1   1.00000     0.00000 
CORINA 4.3.0 0026  30.10.2019
 14 15  0  0  0  0  0  0  0  0999 V2000
  -33.4567   -1.1392  -46.1854 C   0  0  0  0  0  0  0  0  0  0  0  0
  -34.2112    0.1653  -46.1845 C   0  0  0  0  0  0  0  0  0  0  0  0
  -34.0040    1.1743  -46.9768 N   0  0  0  0  0  0  0  0  0  0  0  0
  -34.7772    2.0736  -46.7225 O   0  0  0  0  0  0  0  0  0  0  0  0
  -35.5753    1.7129  -45.7132 C   0  0  0  0  0  0  0  0  0  0  0  0
  -36.6706    2.5427  -45.0944 C   0  0  0  0  0  0  0  0  0  0  0  0
  -36.1182    3.3364  -43.9885 N   0  0  0  0  0  0  0  0  0  0  0  0
  -37.0926    4.3292  -43.5148 C   0  0  0  0  0  0  0  0  0  0  0  0
  -36.5103    5.0792  -42.3143 C   0  0  0  0  0  0  0  0  0  0  0  0
  -35.2517    5.7273  -42.7086 N   0  0  0  0  0  0  0  0  0  0  0  0
  -34.2773    4.7344  -43.1823 C   0  0  0  0  0  0  0  0  0  0  0  0
  -34.8596    3.9845  -44.3827 C   0  0  0  0  0  0  0  0  0  0  0  0
  -35.2196    0.5011  -45.3603 N   0  0  0  0  0  0  0  0  0  0  0  0
  -34.6087    6.6511  -41.4212 X   0  0  0  0  0  0  0  0  0  0  0  0
  1  2  1  0  0  0  0
  2  3  2  0  0  0  0
  2 13  1  0  0  0  0
  3  4  1  0  0  0  0
  4  5  1  0  0  0  0
  5  6  1  0  0  0  0
  5 13  2  0  0  0  0
  6  7  1  0  0  0  0
  7  8  1  0  0  0  0
  7 12  1  0  0  0  0
  8  9  1  0  0  0  0
  9 10  1  0  0  0  0
 10 11  1  0  0  0  0
 10 14  1  0  0  0  0
 11 12  1  0  0  0  0
M  END
> <Index>
1375

> <PropertyFieldDistance>
nan

$$$$
306246
BBcorina  12272117083D 1   1.00000     0.00000 
CORINA 4.3.0 0026  30.10.2019
 15 16  0  0  0  0  0  0  0  0999 V2000
  -34.6112    6.1192  -41.3670 N   0  0  0  0  0  0  0  0  0  0  0  0
  -35.1833    5.6373  -42.6312 C   0  0  0  0  0  0  0  0  0  0  0  0
  -36.5436    4.9839  -42.3591 C   0  0  0  0  0  0  0  0  0  0  0  0
  -37.1494    4.5134  -43.6851 C   0  0  0  0  0  0  0  0  0  0  0  0
  -36.1840    3.6397  -44.3658 N   0  0  0  0  0  0  0  0  0  0  0  0
  -34.8207    4.1371  -44.5954 C   0  0  0  0  0  0  0  0  0  0  0  0
  -34.2377    4.6116  -43.2605 C   0  0  0  0  0  0  0  0  0  0  0  0
  -36.5420    2.4053  -44.7716 C   0  0  0  0  0  0  0  0  0  0  0  0
  -37.6356    1.9620  -44.4777 O   0  0  0  0  0  0  0  0  0  0  0  0
  -35.6082    1.5928  -45.5715 C   0  0  0  0  0  0  0  0  0  0  0  0
  -35.5038    0.1266  -45.5977 C   0  0  0  0  0  0  0  0  0  0  0  0
  -34.5210   -0.1577  -46.4658 C   0  0  0  0  0  0  0  0  0  0  0  0
  -34.0271    0.9876  -46.9614 O   0  0  0  0  0  0  0  0  0  0  0  0
  -34.6641    2.0439  -46.4468 C   0  0  0  0  0  0  0  0  0  0  0  0
  -34.2862    4.8180  -40.3060 X   0  0  0  0  0  0  0  0  0  0  0  0
  1  2  1  0  0  0  0
  1 15  1  0  0  0  0
  2  3  1  0  0  0  0
  2  7  1  0  0  0  0
  3  4  1  0  0  0  0
  4  5  1  0  0  0  0
  5  6  1  0  0  0  0
  5  8  1  0  0  0  0
  6  7  1  0  0  0  0
  8  9  2  0  0  0  0
  8 10  1  0  0  0  0
 10 11  1  0  0  0  0
 10 14  2  0  0  0  0
 11 12  2  0  0  0  0
 12 13  1  0  0  0  0
 13 14  1  0  0  0  0
M  END
> <Index>
1402

> <PropertyFieldDistance>
nan

$$$$
307590
BBcorina  12272117083D 1   1.00000     0.00000 
CORINA 4.3.0 0026  30.10.2019
 12 12  0  0  0  0  0  0  0  0999 V2000
  -35.6022    1.5464  -45.5865 C   0  0  0  0  0  0  0  0  0  0  0  0
  -36.6594    2.5521  -45.1263 C   0  0  0  0  0  0  0  0  0  0  0  0
  -37.0777    3.4291  -46.3082 C   0  0  0  0  0  0  0  0  0  0  0  0
  -36.1010    3.3974  -44.0627 N   0  0  0  0  0  0  0  0  0  0  0  0
  -37.0900    4.3771  -43.5953 C   0  0  0  0  0  0  0  0  0  0  0  0
  -36.5263    5.1398  -42.3941 C   0  0  0  0  0  0  0  0  0  0  0  0
  -35.2335    5.8488  -42.8070 C   0  0  0  0  0  0  0  0  0  0  0  0
  -34.2382    4.8120  -43.3351 C   0  0  0  0  0  0  0  0  0  0  0  0
  -34.8683    4.0590  -44.5089 C   0  0  0  0  0  0  0  0  0  0  0  0
  -34.6567    6.5347  -41.6430 N   0  0  0  0  0  0  0  0  0  0  0  0
  -33.4788    7.3240  -42.0275 C   0  0  0  0  0  0  0  0  0  0  0  0
  -34.2703    5.4208  -40.4046 X   0  0  0  0  0  0  0  0  0  0  0  0
  1  2  1  0  0  0  0
  2  3  1  0  0  0  0
  2  4  1  0  0  0  0
  4  5  1  0  0  0  0
  4  9  1  0  0  0  0
  5  6  1  0  0  0  0
  6  7  1  0  0  0  0
  7  8  1  0  0  0  0
  7 10  1  0  0  0  0
  8  9  1  0  0  0  0
 10 11  1  0  0  0  0
 10 12  1  0  0  0  0
M  END
> <Index>
1407

> <PropertyFieldDistance>
nan

$$$$
307716
BBcorina  12272117083D 1   1.00000     0.00000 
CORINA 4.3.0 0026  30.10.2019
 13 14  0  0  0  0  0  0  0  0999 V2000
  -34.5887    6.0629  -41.3387 N   0  0  0  0  0  0  0  0  0  0  0  0
  -35.1715    5.6120  -42.6095 C   0  0  0  0  0  0  0  0  0  0  0  0
  -36.5315    4.9622  -42.3446 C   0  0  0  0  0  0  0  0  0  0  0  0
  -37.1517    4.5244  -43.6751 C   0  0  0  0  0  0  0  0  0  0  0  0
  -36.1965    3.6588  -44.3800 N   0  0  0  0  0  0  0  0  0  0  0  0
  -34.8293    4.1493  -44.6022 C   0  0  0  0  0  0  0  0  0  0  0  0
  -34.2368    4.5935  -43.2661 C   0  0  0  0  0  0  0  0  0  0  0  0
  -36.5655    2.4358  -44.8098 C   0  0  0  0  0  0  0  0  0  0  0  0
  -37.6955    2.0405  -44.6157 O   0  0  0  0  0  0  0  0  0  0  0  0
  -35.5741    1.5597  -45.5312 C   0  0  0  0  0  0  0  0  0  0  0  0
  -36.0534    0.1817  -45.9921 C   0  0  0  0  0  0  0  0  0  0  0  0
  -35.0882    0.3004  -44.8109 C   0  0  0  0  0  0  0  0  0  0  0  0
  -34.3695    4.7502  -40.2650 X   0  0  0  0  0  0  0  0  0  0  0  0
  1  2  1  0  0  0  0
  1 13  1  0  0  0  0
  2  3  1  0  0  0  0
  2  7  1  0  0  0  0
  3  4  1  0  0  0  0
  4  5  1  0  0  0  0
  5  6  1  0  0  0  0
  5  8  1  0  0  0  0
  6  7  1  0  0  0  0
  8  9  2  0  0  0  0
  8 10  1  0  0  0  0
 10 11  1  0  0  0  0
 10 12  1  0  0  0  0
 11 12  1  0  0  0  0
M  END
> <Index>
1416

> <PropertyFieldDistance>
nan

$$$$
489912
BBcorina  12272117083D 1   1.00000     0.00000 
CORINA 4.3.0 0026  30.10.2019
  9  9  0  0  0  0  0  0  0  0999 V2000
  -37.3301    6.7812  -40.7954 C   0  0  0  0  0  0  0  0  0  0  0  0
  -37.6835    6.1408  -42.1392 C   0  0  0  0  0  0  0  0  0  0  0  0
  -36.6101    5.1171  -42.5144 C   0  0  0  0  0  0  0  0  0  0  0  0
  -37.0250    4.3871  -43.7945 C   0  0  0  0  0  0  0  0  0  0  0  0
  -35.9556    3.4605  -44.1936 N   0  0  0  0  0  0  0  0  0  0  0  0
  -34.6940    4.1834  -44.4108 C   0  0  0  0  0  0  0  0  0  0  0  0
  -34.3026    4.9154  -43.1244 C   0  0  0  0  0  0  0  0  0  0  0  0
  -35.3668    5.7882  -42.7358 O   0  0  0  0  0  0  0  0  0  0  0  0
  -36.4018    2.5727  -45.5854 X   0  0  0  0  0  0  0  0  0  0  0  0
  1  2  1  0  0  0  0
  2  3  1  0  0  0  0
  3  4  1  0  0  0  0
  3  8  1  0  0  0  0
  4  5  1  0  0  0  0
  5  6  1  0  0  0  0
  5  9  1  0  0  0  0
  6  7  1  0  0  0  0
  7  8  1  0  0  0  0
M  END
> <Index>
1430

> <PropertyFieldDistance>
nan

$$$$
502968
BBcorina  12272117083D 1   1.00000     0.00000 
CORINA 4.3.0 0026  30.10.2019
 10 10  0  0  0  0  0  0  0  0999 V2000
  -36.2800    4.1284  -43.1489 C   0  0  0  0  0  0  0  0  0  0  0  0
  -36.0173    3.5927  -44.4913 N   0  0  0  0  0  0  0  0  0  0  0  0
  -36.3933    2.1751  -44.5752 C   0  0  0  0  0  0  0  0  0  0  0  0
  -36.1059    1.6538  -45.9847 C   0  0  0  0  0  0  0  0  0  0  0  0
  -36.3797    0.1495  -46.0378 C   0  0  0  0  0  0  0  0  0  0  0  0
  -36.0923   -0.3718  -47.4472 C   0  0  0  0  0  0  0  0  0  0  0  0
  -36.9961    0.3468  -48.4510 C   0  0  0  0  0  0  0  0  0  0  0  0
  -36.7223    1.8512  -48.3979 C   0  0  0  0  0  0  0  0  0  0  0  0
  -37.0097    2.3725  -46.9885 C   0  0  0  0  0  0  0  0  0  0  0  0
  -34.3808    3.8198  -44.9324 X   0  0  0  0  0  0  0  0  0  0  0  0
  1  2  1  0  0  0  0
  2  3  1  0  0  0  0
  2 10  1  0  0  0  0
  3  4  1  0  0  0  0
  4  5  1  0  0  0  0
  4  9  1  0  0  0  0
  5  6  1  0  0  0  0
  6  7  1  0  0  0  0
  7  8  1  0  0  0  0
  8  9  1  0  0  0  0
M  END
> <Index>
1456

> <PropertyFieldDistance>
nan

$$$$
876094
BBcorina  12272117083D 1   1.00000     0.00000 
CORINA 4.3.0 0026  30.10.2019
  6  6  0  0  0  0  0  0  0  0999 V2000
  -36.0384    3.5860  -44.4473 N   0  0  0  0  0  0  0  0  0  0  0  0
  -36.9958    4.4981  -43.8144 C   0  0  0  0  0  0  0  0  0  0  0  0
  -36.5728    4.9121  -42.3919 C   0  0  0  0  0  0  0  0  0  0  0  0
  -34.9270    4.1222  -42.1871 S   0  0  0  0  0  0  0  0  0  0  0  0
  -34.6506    3.8669  -43.9893 C   0  0  0  0  0  0  0  0  0  0  0  0
  -36.1458    3.6712  -46.1519 X   0  0  0  0  0  0  0  0  0  0  0  0
  1  2  1  0  0  0  0
  1  5  1  0  0  0  0
  1  6  1  0  0  0  0
  2  3  1  0  0  0  0
  3  4  1  0  0  0  0
  4  5  1  0  0  0  0
M  END
> <Index>
1478

> <PropertyFieldDistance>
nan

$$$$
1329508
BBcorina  12272117083D 1   1.00000     0.00000 
CORINA 4.3.0 0026  30.10.2019
 13 14  0  0  0  0  0  0  0  0999 V2000
  -38.2903    1.2428  -46.7180 N   0  0  0  0  0  0  0  0  0  0  0  0
  -38.0430    0.5729  -45.4348 C   0  0  0  0  0  0  0  0  0  0  0  0
  -37.6076    1.6068  -44.3938 C   0  0  0  0  0  0  0  0  0  0  0  0
  -36.3354    2.3075  -44.8786 C   0  0  0  0  0  0  0  0  0  0  0  0
  -36.6061    2.9558  -46.2392 C   0  0  0  0  0  0  0  0  0  0  0  0
  -37.0706    1.8829  -47.2266 C   0  0  0  0  0  0  0  0  0  0  0  0
  -35.9453    3.3417  -43.9110 N   0  0  0  0  0  0  0  0  0  0  0  0
  -37.0432    4.2898  -43.6827 C   0  0  0  0  0  0  0  0  0  0  0  0
  -36.6554    5.2624  -42.5667 C   0  0  0  0  0  0  0  0  0  0  0  0
  -35.3833    6.0133  -42.9701 C   0  0  0  0  0  0  0  0  0  0  0  0
  -34.2692    5.0007  -43.2489 C   0  0  0  0  0  0  0  0  0  0  0  0
  -34.7261    4.0356  -44.3451 C   0  0  0  0  0  0  0  0  0  0  0  0
  -38.9333    0.1502  -47.8656 X   0  0  0  0  0  0  0  0  0  0  0  0
  1  2  1  0  0  0  0
  1  6  1  0  0  0  0
  1 13  1  0  0  0  0
  2  3  1  0  0  0  0
  3  4  1  0  0  0  0
  4  5  1  0  0  0  0
  4  7  1  0  0  0  0
  5  6  1  0  0  0  0
  7  8  1  0  0  0  0
  7 12  1  0  0  0  0
  8  9  1  0  0  0  0
  9 10  1  0  0  0  0
 10 11  1  0  0  0  0
 11 12  1  0  0  0  0
M  END
> <Index>
1479

> <PropertyFieldDistance>
nan

$$$$
7425596
BBcorina  12272117083D 1   1.00000     0.00000 
CORINA 4.3.0 0026  30.10.2019
  9  9  0  0  0  0  0  0  0  0999 V2000
  -33.8635    2.3087  -45.3358 O   0  0  0  0  0  0  0  0  0  0  0  0
  -34.5324    2.7696  -44.1600 C   0  0  0  0  0  0  0  0  0  0  0  0
  -34.5532    4.2994  -44.1516 C   0  0  0  0  0  0  0  0  0  0  0  0
  -35.2693    4.7928  -42.8928 C   0  0  0  0  0  0  0  0  0  0  0  0
  -36.7047    4.2633  -42.8820 C   0  0  0  0  0  0  0  0  0  0  0  0
  -36.6839    2.7334  -42.8904 C   0  0  0  0  0  0  0  0  0  0  0  0
  -35.9678    2.2400  -44.1492 C   0  0  0  0  0  0  0  0  0  0  0  0
  -35.9479    0.7712  -44.1573 N   0  0  0  0  0  0  0  0  0  0  0  0
  -35.8447    0.1685  -45.7542 X   0  0  0  0  0  0  0  0  0  0  0  0
  1  2  1  0  0  0  0
  2  3  1  0  0  0  0
  2  7  1  0  0  0  0
  3  4  1  0  0  0  0
  4  5  1  0  0  0  0
  5  6  1  0  0  0  0
  6  7  1  0  0  0  0
  7  8  1  0  0  0  0
  8  9  1  0  0  0  0
M  END
> <Index>
1492

> <PropertyFieldDistance>
nan

$$$$
12111632
BBcorina  12272117083D 1   1.00000     0.00000 
CORINA 4.3.0 0026  30.10.2019
  9  9  0  0  0  0  0  0  0  0999 V2000
  -32.6555    5.8411  -42.8132 C   0  0  0  0  0  0  0  0  0  0  0  0
  -34.0656    6.1518  -43.0837 N   0  0  0  0  0  0  0  0  0  0  0  0
  -34.9231    4.9922  -42.8042 C   0  0  0  0  0  0  0  0  0  0  0  0
  -36.4220    5.3568  -42.9694 C   0  0  0  0  0  0  0  0  0  0  0  0
  -37.0772    4.0033  -43.3157 C   0  0  0  0  0  0  0  0  0  0  0  0
  -36.0196    3.1328  -43.8612 N   0  0  0  0  0  0  0  0  0  0  0  0
  -36.3743    2.6510  -45.2029 C   0  0  0  0  0  0  0  0  0  0  0  0
  -34.7520    3.8932  -43.8893 C   0  0  0  0  0  0  0  0  0  0  0  0
  -34.2758    6.6963  -44.6909 X   0  0  0  0  0  0  0  0  0  0  0  0
  1  2  1  0  0  0  0
  2  3  1  0  0  0  0
  2  9  1  0  0  0  0
  3  4  1  0  0  0  0
  3  8  1  0  0  0  0
  4  5  1  0  0  0  0
  5  6  1  0  0  0  0
  6  7  1  0  0  0  0
  6  8  1  0  0  0  0
M  END
> <Index>
1549

> <PropertyFieldDistance>
nan

$$$$
523244
BBcorina  12272117083D 1   1.00000     0.00000 
CORINA 4.3.0 0026  30.10.2019
 12 13  0  0  0  0  0  0  0  0999 V2000
  -36.0087    3.6126  -44.3879 N   0  0  0  0  0  0  0  0  0  0  0  0
  -37.0096    4.4890  -43.7634 C   0  0  0  0  0  0  0  0  0  0  0  0
  -36.5702    4.8249  -42.3364 C   0  0  0  0  0  0  0  0  0  0  0  0
  -35.2534    5.4763  -42.3725 N   0  0  0  0  0  0  0  0  0  0  0  0
  -34.2525    4.6000  -42.9970 C   0  0  0  0  0  0  0  0  0  0  0  0
  -34.6918    4.2640  -44.4241 C   0  0  0  0  0  0  0  0  0  0  0  0
  -34.8301    5.8830  -41.0259 C   0  0  0  0  0  0  0  0  0  0  0  0
  -33.3904    6.4534  -41.0594 C   0  0  0  0  0  0  0  0  0  0  0  0
  -33.3442    7.3506  -39.7976 C   0  0  0  0  0  0  0  0  0  0  0  0
  -34.7489    7.9903  -39.7390 C   0  0  0  0  0  0  0  0  0  0  0  0
  -35.6915    7.0591  -40.5214 C   0  0  0  0  0  0  0  0  0  0  0  0
  -36.5015    3.1392  -45.9555 X   0  0  0  0  0  0  0  0  0  0  0  0
  1  2  1  0  0  0  0
  1  6  1  0  0  0  0
  1 12  1  0  0  0  0
  2  3  1  0  0  0  0
  3  4  1  0  0  0  0
  4  5  1  0  0  0  0
  4  7  1  0  0  0  0
  5  6  1  0  0  0  0
  7  8  1  0  0  0  0
  7 11  1  0  0  0  0
  8  9  1  0  0  0  0
  9 10  1  0  0  0  0
 10 11  1  0  0  0  0
M  END
> <Index>
1552

> <PropertyFieldDistance>
nan

$$$$
10812958
BBcorina  12272117083D 1   1.00000     0.00000 
CORINA 4.3.0 0026  30.10.2019
 11 11  0  0  0  0  0  0  0  0999 V2000
  -36.1391    0.8966  -46.9004 C   0  0  0  0  0  0  0  0  0  0  0  0
  -35.5902    1.6438  -45.6834 C   0  0  0  0  0  0  0  0  0  0  0  0
  -36.6661    2.5821  -45.1330 C   0  0  0  0  0  0  0  0  0  0  0  0
  -37.8610    1.7589  -44.6478 C   0  0  0  0  0  0  0  0  0  0  0  0
  -36.1153    3.3541  -44.0110 N   0  0  0  0  0  0  0  0  0  0  0  0
  -37.0907    4.3368  -43.5188 C   0  0  0  0  0  0  0  0  0  0  0  0
  -36.5100    5.0631  -42.3032 C   0  0  0  0  0  0  0  0  0  0  0  0
  -35.2512    5.7195  -42.6831 N   0  0  0  0  0  0  0  0  0  0  0  0
  -34.2758    4.7367  -43.1753 C   0  0  0  0  0  0  0  0  0  0  0  0
  -34.8565    4.0104  -44.3910 C   0  0  0  0  0  0  0  0  0  0  0  0
  -34.6101    6.6180  -41.3771 X   0  0  0  0  0  0  0  0  0  0  0  0
  1  2  1  0  0  0  0
  2  3  1  0  0  0  0
  3  4  1  0  0  0  0
  3  5  1  0  0  0  0
  5  6  1  0  0  0  0
  5 10  1  0  0  0  0
  6  7  1  0  0  0  0
  7  8  1  0  0  0  0
  8  9  1  0  0  0  0
  8 11  1  0  0  0  0
  9 10  1  0  0  0  0
M  END
> <Index>
1554

> <PropertyFieldDistance>
nan

$$$$
14934064
BBcorina  12272117083D 1   1.00000     0.00000 
CORINA 4.3.0 0026  30.10.2019
 13 13  0  0  0  0  0  0  0  0999 V2000
  -35.9035    3.1173  -49.8063 O   0  0  0  0  0  0  0  0  0  0  0  0
  -37.0838    3.6867  -49.2365 C   0  0  0  0  0  0  0  0  0  0  0  0
  -37.5618    2.8134  -48.0747 C   0  0  0  0  0  0  0  0  0  0  0  0
  -36.5879    2.8368  -47.0292 O   0  0  0  0  0  0  0  0  0  0  0  0
  -36.9388    2.0483  -45.8903 C   0  0  0  0  0  0  0  0  0  0  0  0
  -35.8303    2.1472  -44.8403 C   0  0  0  0  0  0  0  0  0  0  0  0
  -35.7401    3.5298  -44.3521 N   0  0  0  0  0  0  0  0  0  0  0  0
  -36.8411    3.8349  -43.4280 C   0  0  0  0  0  0  0  0  0  0  0  0
  -36.7569    5.3035  -43.0054 C   0  0  0  0  0  0  0  0  0  0  0  0
  -35.4555    5.5539  -42.3706 N   0  0  0  0  0  0  0  0  0  0  0  0
  -34.3544    5.2488  -43.2948 C   0  0  0  0  0  0  0  0  0  0  0  0
  -34.4386    3.7802  -43.7173 C   0  0  0  0  0  0  0  0  0  0  0  0
  -35.3504    7.1633  -41.8023 X   0  0  0  0  0  0  0  0  0  0  0  0
  1  2  1  0  0  0  0
  2  3  1  0  0  0  0
  3  4  1  0  0  0  0
  4  5  1  0  0  0  0
  5  6  1  0  0  0  0
  6  7  1  0  0  0  0
  7  8  1  0  0  0  0
  7 12  1  0  0  0  0
  8  9  1  0  0  0  0
  9 10  1  0  0  0  0
 10 11  1  0  0  0  0
 10 13  1  0  0  0  0
 11 12  1  0  0  0  0
M  END
> <Index>
1559

> <PropertyFieldDistance>
nan

$$$$
17793270
BBcorina  12272117083D 1   1.00000     0.00000 
CORINA 4.3.0 0026  30.10.2019
 14 15  0  0  0  0  0  0  0  0999 V2000
  -37.6395   -0.3153  -48.4855 Br  0  0  0  0  0  0  0  0  0  0  0  0
  -37.1141    0.8153  -47.0637 C   0  0  0  0  0  0  0  0  0  0  0  0
  -35.8613    0.6718  -46.4943 C   0  0  0  0  0  0  0  0  0  0  0  0
  -35.4746    1.4963  -45.4560 C   0  0  0  0  0  0  0  0  0  0  0  0
  -36.3449    2.4704  -44.9836 C   0  0  0  0  0  0  0  0  0  0  0  0
  -37.6039    2.6087  -45.5538 C   0  0  0  0  0  0  0  0  0  0  0  0
  -37.9830    1.7848  -46.5952 C   0  0  0  0  0  0  0  0  0  0  0  0
  -35.9566    3.3058  -43.9330 N   0  0  0  0  0  0  0  0  0  0  0  0
  -37.0241    4.2577  -43.5950 C   0  0  0  0  0  0  0  0  0  0  0  0
  -36.5917    5.0987  -42.3915 C   0  0  0  0  0  0  0  0  0  0  0  0
  -35.3434    5.8042  -42.7135 N   0  0  0  0  0  0  0  0  0  0  0  0
  -34.2760    4.8524  -43.0515 C   0  0  0  0  0  0  0  0  0  0  0  0
  -34.7084    4.0114  -44.2549 C   0  0  0  0  0  0  0  0  0  0  0  0
  -34.8683    6.8265  -41.4277 X   0  0  0  0  0  0  0  0  0  0  0  0
  1  2  1  0  0  0  0
  2  3  2  0  0  0  0
  2  7  1  0  0  0  0
  3  4  1  0  0  0  0
  4  5  2  0  0  0  0
  5  6  1  0  0  0  0
  5  8  1  0  0  0  0
  6  7  2  0  0  0  0
  8  9  1  0  0  0  0
  8 13  1  0  0  0  0
  9 10  1  0  0  0  0
 10 11  1  0  0  0  0
 11 12  1  0  0  0  0
 11 14  1  0  0  0  0
 12 13  1  0  0  0  0
M  END
> <Index>
1561

> <PropertyFieldDistance>
nan

$$$$
12058018
BBcorina  12272117083D 1   1.00000     0.00000 
CORINA 4.3.0 0026  30.10.2019
 10 10  0  0  0  0  0  0  0  0999 V2000
  -36.3235    2.2515  -44.8151 C   0  0  0  0  0  0  0  0  0  0  0  0
  -36.0634    3.6522  -44.4568 N   0  0  0  0  0  0  0  0  0  0  0  0
  -37.1161    4.1738  -43.5592 C   0  0  0  0  0  0  0  0  0  0  0  0
  -36.3824    5.1681  -42.6251 C   0  0  0  0  0  0  0  0  0  0  0  0
  -35.0219    4.4534  -42.4130 C   0  0  0  0  0  0  0  0  0  0  0  0
  -34.7597    3.7916  -43.7822 C   0  0  0  0  0  0  0  0  0  0  0  0
  -34.1274    2.4130  -43.5815 C   0  0  0  0  0  0  0  0  0  0  0  0
  -32.7361    2.5747  -42.9659 C   0  0  0  0  0  0  0  0  0  0  0  0
  -32.0803    1.2626  -42.8860 N   0  0  0  0  0  0  0  0  0  0  0  0
  -30.5190    1.3985  -42.2022 X   0  0  0  0  0  0  0  0  0  0  0  0
  1  2  1  0  0  0  0
  2  3  1  0  0  0  0
  2  6  1  0  0  0  0
  3  4  1  0  0  0  0
  4  5  1  0  0  0  0
  5  6  1  0  0  0  0
  6  7  1  0  0  0  0
  7  8  1  0  0  0  0
  8  9  1  0  0  0  0
  9 10  1  0  0  0  0
M  END
> <Index>
1571

> <PropertyFieldDistance>
nan

$$$$
6286038
BBcorina  12272117083D 1   1.00000     0.00000 
CORINA 4.3.0 0026  30.10.2019
 11 11  0  0  0  0  0  0  0  0999 V2000
  -32.2436    6.0670  -42.5906 C   0  0  0  0  0  0  0  0  0  0  0  0
  -32.6802    4.7523  -41.9412 C   0  0  0  0  0  0  0  0  0  0  0  0
  -34.1153    4.8112  -41.6329 N   0  0  0  0  0  0  0  0  0  0  0  0
  -34.3996    5.8646  -40.6492 C   0  0  0  0  0  0  0  0  0  0  0  0
  -33.8764    5.4356  -39.2770 C   0  0  0  0  0  0  0  0  0  0  0  0
  -34.9086    5.0034  -42.8542 C   0  0  0  0  0  0  0  0  0  0  0  0
  -36.4203    5.0032  -42.5302 C   0  0  0  0  0  0  0  0  0  0  0  0
  -37.0792    4.2273  -43.6856 C   0  0  0  0  0  0  0  0  0  0  0  0
  -35.9999    3.8419  -44.6205 N   0  0  0  0  0  0  0  0  0  0  0  0
  -34.7583    3.7907  -43.8067 C   0  0  0  0  0  0  0  0  0  0  0  0
  -36.3244    2.3245  -45.3392 X   0  0  0  0  0  0  0  0  0  0  0  0
  1  2  1  0  0  0  0
  2  3  1  0  0  0  0
  3  4  1  0  0  0  0
  3  6  1  0  0  0  0
  4  5  1  0  0  0  0
  6  7  1  0  0  0  0
  6 10  1  0  0  0  0
  7  8  1  0  0  0  0
  8  9  1  0  0  0  0
  9 10  1  0  0  0  0
  9 11  1  0  0  0  0
M  END
> <Index>
1575

> <PropertyFieldDistance>
nan

$$$$
4597156
BBcorina  12272117083D 1   1.00000     0.00000 
CORINA 4.3.0 0026  30.10.2019
 12 12  0  0  0  0  0  0  0  0999 V2000
  -37.0837    3.6867  -49.2365 C   0  0  0  0  0  0  0  0  0  0  0  0
  -37.5617    2.8133  -48.0747 C   0  0  0  0  0  0  0  0  0  0  0  0
  -36.5879    2.8368  -47.0292 O   0  0  0  0  0  0  0  0  0  0  0  0
  -36.9388    2.0483  -45.8903 C   0  0  0  0  0  0  0  0  0  0  0  0
  -35.8304    2.1471  -44.8403 C   0  0  0  0  0  0  0  0  0  0  0  0
  -35.7401    3.5298  -44.3522 N   0  0  0  0  0  0  0  0  0  0  0  0
  -36.8411    3.8349  -43.4280 C   0  0  0  0  0  0  0  0  0  0  0  0
  -36.7569    5.3035  -43.0055 C   0  0  0  0  0  0  0  0  0  0  0  0
  -35.4555    5.5539  -42.3705 N   0  0  0  0  0  0  0  0  0  0  0  0
  -34.3543    5.2488  -43.2948 C   0  0  0  0  0  0  0  0  0  0  0  0
  -34.4387    3.7802  -43.7173 C   0  0  0  0  0  0  0  0  0  0  0  0
  -35.3504    7.1634  -41.8023 X   0  0  0  0  0  0  0  0  0  0  0  0
  1  2  1  0  0  0  0
  2  3  1  0  0  0  0
  3  4  1  0  0  0  0
  4  5  1  0  0  0  0
  5  6  1  0  0  0  0
  6  7  1  0  0  0  0
  6 11  1  0  0  0  0
  7  8  1  0  0  0  0
  8  9  1  0  0  0  0
  9 10  1  0  0  0  0
  9 12  1  0  0  0  0
 10 11  1  0  0  0  0
M  END
> <Index>
1578

> <PropertyFieldDistance>
nan

$$$$
8694054
BBcorina  12272117083D 1   1.00000     0.00000 
CORINA 4.3.0 0026  30.10.2019
 14 15  0  0  0  0  0  0  0  0999 V2000
  -37.5326   -0.0851  -48.1965 C   0  0  0  0  0  0  0  0  0  0  0  0
  -37.1139    0.8159  -47.0633 C   0  0  0  0  0  0  0  0  0  0  0  0
  -35.8618    0.6722  -46.4943 C   0  0  0  0  0  0  0  0  0  0  0  0
  -35.4746    1.4965  -45.4560 C   0  0  0  0  0  0  0  0  0  0  0  0
  -36.3448    2.4708  -44.9833 C   0  0  0  0  0  0  0  0  0  0  0  0
  -37.6038    2.6089  -45.5538 C   0  0  0  0  0  0  0  0  0  0  0  0
  -37.9826    1.7848  -46.5952 C   0  0  0  0  0  0  0  0  0  0  0  0
  -35.9567    3.3058  -43.9331 N   0  0  0  0  0  0  0  0  0  0  0  0
  -37.0241    4.2576  -43.5950 C   0  0  0  0  0  0  0  0  0  0  0  0
  -36.5917    5.0986  -42.3916 C   0  0  0  0  0  0  0  0  0  0  0  0
  -35.3434    5.8041  -42.7135 N   0  0  0  0  0  0  0  0  0  0  0  0
  -34.2760    4.8523  -43.0514 C   0  0  0  0  0  0  0  0  0  0  0  0
  -34.7083    4.0113  -44.2550 C   0  0  0  0  0  0  0  0  0  0  0  0
  -34.8683    6.8264  -41.4276 X   0  0  0  0  0  0  0  0  0  0  0  0
  1  2  1  0  0  0  0
  2  3  2  0  0  0  0
  2  7  1  0  0  0  0
  3  4  1  0  0  0  0
  4  5  2  0  0  0  0
  5  6  1  0  0  0  0
  5  8  1  0  0  0  0
  6  7  2  0  0  0  0
  8  9  1  0  0  0  0
  8 13  1  0  0  0  0
  9 10  1  0  0  0  0
 10 11  1  0  0  0  0
 11 12  1  0  0  0  0
 11 14  1  0  0  0  0
 12 13  1  0  0  0  0
M  END
> <Index>
1590

> <PropertyFieldDistance>
nan

$$$$
3042586
BBcorina  12272117083D 1   1.00000     0.00000 
CORINA 4.3.0 0026  30.10.2019
 12 13  0  0  0  0  0  0  0  0999 V2000
  -36.0191    3.9414  -44.5845 N   0  0  0  0  0  0  0  0  0  0  0  0
  -36.9723    4.0087  -43.4695 C   0  0  0  0  0  0  0  0  0  0  0  0
  -36.6793    5.2475  -42.6202 C   0  0  0  0  0  0  0  0  0  0  0  0
  -35.2462    5.1676  -42.0870 C   0  0  0  0  0  0  0  0  0  0  0  0
  -34.2770    5.0495  -43.2665 C   0  0  0  0  0  0  0  0  0  0  0  0
  -34.6396    3.8164  -44.0970 C   0  0  0  0  0  0  0  0  0  0  0  0
  -34.9395    6.3819  -41.3192 N   0  0  0  0  0  0  0  0  0  0  0  0
  -33.5642    6.3389  -40.7896 C   0  0  0  0  0  0  0  0  0  0  0  0
  -33.6547    6.5076  -39.2583 C   0  0  0  0  0  0  0  0  0  0  0  0
  -35.0318    7.2017  -39.0665 C   0  0  0  0  0  0  0  0  0  0  0  0
  -35.8756    6.5428  -40.1862 C   0  0  0  0  0  0  0  0  0  0  0  0
  -36.4110    2.6621  -45.6494 X   0  0  0  0  0  0  0  0  0  0  0  0
  1  2  1  0  0  0  0
  1  6  1  0  0  0  0
  1 12  1  0  0  0  0
  2  3  1  0  0  0  0
  3  4  1  0  0  0  0
  4  5  1  0  0  0  0
  4  7  1  0  0  0  0
  5  6  1  0  0  0  0
  7  8  1  0  0  0  0
  7 11  1  0  0  0  0
  8  9  1  0  0  0  0
  9 10  1  0  0  0  0
 10 11  1  0  0  0  0
M  END
> <Index>
1626

> <PropertyFieldDistance>
nan

$$$$
16770848
BBcorina  12272117083D 1   1.00000     0.00000 
CORINA 4.3.0 0026  30.10.2019
 12 12  0  0  0  0  0  0  0  0999 V2000
  -34.2162   -0.2324  -45.1276 C   0  0  0  0  0  0  0  0  0  0  0  0
  -35.2254    0.6851  -44.7013 O   0  0  0  0  0  0  0  0  0  0  0  0
  -35.5861    1.6525  -45.6893 C   0  0  0  0  0  0  0  0  0  0  0  0
  -36.6679    2.5768  -45.1269 C   0  0  0  0  0  0  0  0  0  0  0  0
  -37.8492    1.7387  -44.6339 C   0  0  0  0  0  0  0  0  0  0  0  0
  -36.1163    3.3517  -44.0074 N   0  0  0  0  0  0  0  0  0  0  0  0
  -37.0912    4.3363  -43.5176 C   0  0  0  0  0  0  0  0  0  0  0  0
  -36.5097    5.0659  -42.3043 C   0  0  0  0  0  0  0  0  0  0  0  0
  -35.2509    5.7207  -42.6867 N   0  0  0  0  0  0  0  0  0  0  0  0
  -34.2760    4.7361  -43.1766 C   0  0  0  0  0  0  0  0  0  0  0  0
  -34.8575    4.0066  -44.3899 C   0  0  0  0  0  0  0  0  0  0  0  0
  -34.6088    6.6227  -41.3836 X   0  0  0  0  0  0  0  0  0  0  0  0
  1  2  1  0  0  0  0
  2  3  1  0  0  0  0
  3  4  1  0  0  0  0
  4  5  1  0  0  0  0
  4  6  1  0  0  0  0
  6  7  1  0  0  0  0
  6 11  1  0  0  0  0
  7  8  1  0  0  0  0
  8  9  1  0  0  0  0
  9 10  1  0  0  0  0
  9 12  1  0  0  0  0
 10 11  1  0  0  0  0
M  END
> <Index>
1652

> <PropertyFieldDistance>
nan

$$$$
10808610
BBcorina  12272117083D 1   1.00000     0.00000 
CORINA 4.3.0 0026  30.10.2019
 10 10  0  0  0  0  0  0  0  0999 V2000
  -35.8082    3.5897  -44.0671 N   0  0  0  0  0  0  0  0  0  0  0  0
  -37.1218    4.1757  -43.7012 C   0  0  0  0  0  0  0  0  0  0  0  0
  -37.1777    5.1056  -42.4718 C   0  0  0  0  0  0  0  0  0  0  0  0
  -36.6737    4.2338  -41.2676 C   0  0  0  0  0  0  0  0  0  0  0  0
  -35.5963    5.0889  -40.5626 C   0  0  0  0  0  0  0  0  0  0  0  0
  -34.3970    5.5373  -41.4296 C   0  0  0  0  0  0  0  0  0  0  0  0
  -33.7643    4.2075  -41.9779 C   0  0  0  0  0  0  0  0  0  0  0  0
  -33.6023    4.4334  -43.4967 C   0  0  0  0  0  0  0  0  0  0  0  0
  -34.8774    4.7592  -44.3008 C   0  0  0  0  0  0  0  0  0  0  0  0
  -35.9388    2.6207  -45.4700 X   0  0  0  0  0  0  0  0  0  0  0  0
  1  2  1  0  0  0  0
  1  9  1  0  0  0  0
  1 10  1  0  0  0  0
  2  3  1  0  0  0  0
  3  4  1  0  0  0  0
  4  5  1  0  0  0  0
  5  6  1  0  0  0  0
  6  7  1  0  0  0  0
  7  8  1  0  0  0  0
  8  9  1  0  0  0  0
M  END
> <Index>
1654

> <PropertyFieldDistance>
nan

$$$$
848508
BBcorina  12272117083D 1   1.00000     0.00000 
CORINA 4.3.0 0026  30.10.2019
 12 12  0  0  0  0  0  0  0  0999 V2000
  -35.3303   -0.5113  -46.6794 C   0  0  0  0  0  0  0  0  0  0  0  0
  -36.1963    0.3792  -45.9731 O   0  0  0  0  0  0  0  0  0  0  0  0
  -35.5689    1.5954  -45.5616 C   0  0  0  0  0  0  0  0  0  0  0  0
  -36.5687    2.4539  -44.8304 C   0  0  0  0  0  0  0  0  0  0  0  0
  -37.7063    2.0627  -44.6769 O   0  0  0  0  0  0  0  0  0  0  0  0
  -36.1984    3.6564  -44.3471 N   0  0  0  0  0  0  0  0  0  0  0  0
  -37.1582    4.5099  -43.6306 C   0  0  0  0  0  0  0  0  0  0  0  0
  -36.5301    4.9380  -42.3000 C   0  0  0  0  0  0  0  0  0  0  0  0
  -35.2213    5.5540  -42.5557 N   0  0  0  0  0  0  0  0  0  0  0  0
  -34.2878    4.5919  -43.1565 C   0  0  0  0  0  0  0  0  0  0  0  0
  -34.8224    4.1471  -44.5169 C   0  0  0  0  0  0  0  0  0  0  0  0
  -34.5707    6.2272  -41.1247 X   0  0  0  0  0  0  0  0  0  0  0  0
  1  2  1  0  0  0  0
  2  3  1  0  0  0  0
  3  4  1  0  0  0  0
  4  5  2  0  0  0  0
  4  6  1  0  0  0  0
  6  7  1  0  0  0  0
  6 11  1  0  0  0  0
  7  8  1  0  0  0  0
  8  9  1  0  0  0  0
  9 10  1  0  0  0  0
  9 12  1  0  0  0  0
 10 11  1  0  0  0  0
M  END
> <Index>
1671

> <PropertyFieldDistance>
nan

$$$$
9104902
BBcorina  12272117083D 1   1.00000     0.00000 
CORINA 4.3.0 0026  30.10.2019
 13 14  0  0  0  0  0  0  0  0999 V2000
  -35.7416    5.5854  -43.2355 N   0  0  0  0  0  0  0  0  0  0  0  0
  -36.4064    5.2286  -41.9824 C   0  0  0  0  0  0  0  0  0  0  0  0
  -37.1843    3.9763  -42.0409 C   0  0  0  0  0  0  0  0  0  0  0  0
  -36.2396    2.7874  -42.3491 C   0  0  0  0  0  0  0  0  0  0  0  0
  -35.7601    2.8909  -43.7102 N   0  0  0  0  0  0  0  0  0  0  0  0
  -34.5358    3.6334  -44.0757 C   0  0  0  0  0  0  0  0  0  0  0  0
  -34.4346    4.9681  -43.3134 C   0  0  0  0  0  0  0  0  0  0  0  0
  -36.4613    2.2838  -44.6880 C   0  0  0  0  0  0  0  0  0  0  0  0
  -37.4701    1.6672  -44.4176 O   0  0  0  0  0  0  0  0  0  0  0  0
  -35.9918    2.3709  -46.1173 C   0  0  0  0  0  0  0  0  0  0  0  0
  -36.8311    1.6605  -47.1812 C   0  0  0  0  0  0  0  0  0  0  0  0
  -36.8426    3.1878  -47.0918 C   0  0  0  0  0  0  0  0  0  0  0  0
  -35.6289    7.2829  -43.4076 X   0  0  0  0  0  0  0  0  0  0  0  0
  1  2  1  0  0  0  0
  1  7  1  0  0  0  0
  1 13  1  0  0  0  0
  2  3  1  0  0  0  0
  3  4  1  0  0  0  0
  4  5  1  0  0  0  0
  5  6  1  0  0  0  0
  5  8  1  0  0  0  0
  6  7  1  0  0  0  0
  8  9  2  0  0  0  0
  8 10  1  0  0  0  0
 10 11  1  0  0  0  0
 10 12  1  0  0  0  0
 11 12  1  0  0  0  0
M  END
> <Index>
1680

> <PropertyFieldDistance>
nan

$$$$
504524
BBcorina  12272117083D 1   1.00000     0.00000 
CORINA 4.3.0 0026  30.10.2019
 13 13  0  0  0  0  0  0  0  0999 V2000
  -38.6937   -0.8276  -47.4656 C   0  0  0  0  0  0  0  0  0  0  0  0
  -38.3838   -0.1699  -46.1194 C   0  0  0  0  0  0  0  0  0  0  0  0
  -37.3564    0.8582  -46.3032 N   0  0  0  0  0  0  0  0  0  0  0  0
  -36.9265    1.5775  -45.2475 C   0  0  0  0  0  0  0  0  0  0  0  0
  -37.3901    1.3736  -44.1456 O   0  0  0  0  0  0  0  0  0  0  0  0
  -35.8696    2.6350  -45.4365 C   0  0  0  0  0  0  0  0  0  0  0  0
  -35.6843    3.3723  -44.1796 N   0  0  0  0  0  0  0  0  0  0  0  0
  -36.8869    4.1460  -43.8407 C   0  0  0  0  0  0  0  0  0  0  0  0
  -36.6834    4.8341  -42.4888 C   0  0  0  0  0  0  0  0  0  0  0  0
  -35.5022    5.7057  -42.5587 N   0  0  0  0  0  0  0  0  0  0  0  0
  -34.2996    4.9320  -42.8976 C   0  0  0  0  0  0  0  0  0  0  0  0
  -34.5032    4.2439  -44.2494 C   0  0  0  0  0  0  0  0  0  0  0  0
  -35.2866    6.5640  -41.0955 X   0  0  0  0  0  0  0  0  0  0  0  0
  1  2  1  0  0  0  0
  2  3  1  0  0  0  0
  3  4  1  0  0  0  0
  4  5  2  0  0  0  0
  4  6  1  0  0  0  0
  6  7  1  0  0  0  0
  7  8  1  0  0  0  0
  7 12  1  0  0  0  0
  8  9  1  0  0  0  0
  9 10  1  0  0  0  0
 10 11  1  0  0  0  0
 10 13  1  0  0  0  0
 11 12  1  0  0  0  0
M  END
> <Index>
1688

> <PropertyFieldDistance>
nan

$$$$
2208454
BBcorina  12272117083D 1   1.00000     0.00000 
CORINA 4.3.0 0026  30.10.2019
 14 15  0  0  0  0  0  0  0  0999 V2000
  -35.2403    5.8175  -42.4312 N   0  0  0  0  0  0  0  0  0  0  0  0
  -36.5917    5.2812  -42.1510 C   0  0  0  0  0  0  0  0  0  0  0  0
  -37.3750    4.9790  -43.4029 C   0  0  0  0  0  0  0  0  0  0  0  0
  -37.1507    3.5000  -43.7901 C   0  0  0  0  0  0  0  0  0  0  0  0
  -35.8917    3.3069  -44.3733 N   0  0  0  0  0  0  0  0  0  0  0  0
  -35.7637    1.9459  -44.9109 C   0  0  0  0  0  0  0  0  0  0  0  0
  -36.5479    1.8389  -46.2203 C   0  0  0  0  0  0  0  0  0  0  0  0
  -36.4273    0.4115  -46.7884 C   0  0  0  0  0  0  0  0  0  0  0  0
  -35.8024    0.6126  -48.1904 C   0  0  0  0  0  0  0  0  0  0  0  0
  -36.1354    2.0974  -48.4852 C   0  0  0  0  0  0  0  0  0  0  0  0
  -35.9931    2.7358  -47.1970 O   0  0  0  0  0  0  0  0  0  0  0  0
  -34.7511    3.6388  -43.4957 C   0  0  0  0  0  0  0  0  0  0  0  0
  -34.5451    5.1318  -43.5400 C   0  0  0  0  0  0  0  0  0  0  0  0
  -34.2789    5.8259  -41.0170 X   0  0  0  0  0  0  0  0  0  0  0  0
  1  2  1  0  0  0  0
  1 13  1  0  0  0  0
  1 14  1  0  0  0  0
  2  3  1  0  0  0  0
  3  4  1  0  0  0  0
  4  5  1  0  0  0  0
  5  6  1  0  0  0  0
  5 12  1  0  0  0  0
  6  7  1  0  0  0  0
  7  8  1  0  0  0  0
  7 11  1  0  0  0  0
  8  9  1  0  0  0  0
  9 10  1  0  0  0  0
 10 11  1  0  0  0  0
 12 13  1  0  0  0  0
M  END
> <Index>
1689

> <PropertyFieldDistance>
nan

$$$$
821144
BBcorina  12272117083D 1   1.00000     0.00000 
CORINA 4.3.0 0026  30.10.2019
 16 17  0  0  0  0  0  0  0  0999 V2000
  -34.9615    6.9314  -41.8360 C   0  0  0  0  0  0  0  0  0  0  0  0
  -35.2424    5.4950  -42.2816 C   0  0  0  0  0  0  0  0  0  0  0  0
  -36.6960    5.3791  -42.7485 C   0  0  0  0  0  0  0  0  0  0  0  0
  -36.9542    3.9558  -43.2484 C   0  0  0  0  0  0  0  0  0  0  0  0
  -36.0397    3.6513  -44.3563 N   0  0  0  0  0  0  0  0  0  0  0  0
  -34.6388    3.7101  -43.9198 C   0  0  0  0  0  0  0  0  0  0  0  0
  -34.3116    5.1260  -43.4400 C   0  0  0  0  0  0  0  0  0  0  0  0
  -36.3344    2.4154  -44.9201 C   0  0  0  0  0  0  0  0  0  0  0  0
  -35.5763    1.9467  -45.9880 C   0  0  0  0  0  0  0  0  0  0  0  0
  -35.8805    0.7150  -46.5396 C   0  0  0  0  0  0  0  0  0  0  0  0
  -36.9365   -0.0089  -46.0026 C   0  0  0  0  0  0  0  0  0  0  0  0
  -37.3037   -1.3552  -46.5716 C   0  0  0  0  0  0  0  0  0  0  0  0
  -36.5526   -2.4047  -45.8698 N   0  0  0  0  0  0  0  0  0  0  0  0
  -37.6473    0.5174  -44.9423 C   0  0  0  0  0  0  0  0  0  0  0  0
  -37.3346    1.6950  -44.4362 N   0  0  0  0  0  0  0  0  0  0  0  0
  -36.9403   -3.9519  -46.4860 X   0  0  0  0  0  0  0  0  0  0  0  0
  1  2  1  0  0  0  0
  2  3  1  0  0  0  0
  2  7  1  0  0  0  0
  3  4  1  0  0  0  0
  4  5  1  0  0  0  0
  5  6  1  0  0  0  0
  5  8  1  0  0  0  0
  6  7  1  0  0  0  0
  8  9  2  0  0  0  0
  8 15  1  0  0  0  0
  9 10  1  0  0  0  0
 10 11  2  0  0  0  0
 11 12  1  0  0  0  0
 11 14  1  0  0  0  0
 12 13  1  0  0  0  0
 13 16  1  0  0  0  0
 14 15  2  0  0  0  0
M  END
> <Index>
1760

> <PropertyFieldDistance>
nan

$$$$
803666
BBcorina  12272117083D 1   1.00000     0.00000 
CORINA 4.3.0 0026  30.10.2019
 16 17  0  0  0  0  0  0  0  0999 V2000
  -36.4275    2.6267  -45.2574 C   0  0  0  0  0  0  0  0  0  0  0  0
  -35.9857    3.2991  -44.0282 N   0  0  0  0  0  0  0  0  0  0  0  0
  -37.0072    4.2390  -43.5458 C   0  0  0  0  0  0  0  0  0  0  0  0
  -36.5440    4.8580  -42.2249 C   0  0  0  0  0  0  0  0  0  0  0  0
  -35.2592    5.5409  -42.4309 N   0  0  0  0  0  0  0  0  0  0  0  0
  -34.2377    4.6010  -42.9133 C   0  0  0  0  0  0  0  0  0  0  0  0
  -34.7010    3.9820  -44.2343 C   0  0  0  0  0  0  0  0  0  0  0  0
  -34.8412    6.1772  -41.2678 C   0  0  0  0  0  0  0  0  0  0  0  0
  -33.6421    6.8822  -41.2607 C   0  0  0  0  0  0  0  0  0  0  0  0
  -33.2382    7.5107  -40.0963 C   0  0  0  0  0  0  0  0  0  0  0  0
  -31.9457    8.2842  -40.0468 C   0  0  0  0  0  0  0  0  0  0  0  0
  -32.1979    9.6831  -40.4170 N   0  0  0  0  0  0  0  0  0  0  0  0
  -34.0528    7.4171  -38.9759 C   0  0  0  0  0  0  0  0  0  0  0  0
  -35.2279    6.6963  -39.0525 C   0  0  0  0  0  0  0  0  0  0  0  0
  -35.5882    6.1070  -40.1767 N   0  0  0  0  0  0  0  0  0  0  0  0
  -30.7540   10.5983  -40.3736 X   0  0  0  0  0  0  0  0  0  0  0  0
  1  2  1  0  0  0  0
  2  3  1  0  0  0  0
  2  7  1  0  0  0  0
  3  4  1  0  0  0  0
  4  5  1  0  0  0  0
  5  6  1  0  0  0  0
  5  8  1  0  0  0  0
  6  7  1  0  0  0  0
  8  9  2  0  0  0  0
  8 15  1  0  0  0  0
  9 10  1  0  0  0  0
 10 11  1  0  0  0  0
 10 13  2  0  0  0  0
 11 12  1  0  0  0  0
 12 16  1  0  0  0  0
 13 14  1  0  0  0  0
 14 15  2  0  0  0  0
M  END
> <Index>
1764

> <PropertyFieldDistance>
nan

$$$$
6548892
BBcorina  12272117083D 1   1.00000     0.00000 
CORINA 4.3.0 0026  30.10.2019
 13 14  0  0  0  0  0  0  0  0999 V2000
  -34.9665    6.8855  -41.8494 N   0  0  0  0  0  0  0  0  0  0  0  0
  -35.2385    5.5066  -42.2766 C   0  0  0  0  0  0  0  0  0  0  0  0
  -36.6922    5.3914  -42.7434 C   0  0  0  0  0  0  0  0  0  0  0  0
  -36.9514    3.9682  -43.2428 C   0  0  0  0  0  0  0  0  0  0  0  0
  -36.0372    3.6630  -44.3507 N   0  0  0  0  0  0  0  0  0  0  0  0
  -34.6362    3.7211  -43.9146 C   0  0  0  0  0  0  0  0  0  0  0  0
  -34.3080    5.1368  -43.4351 C   0  0  0  0  0  0  0  0  0  0  0  0
  -36.3495    2.3571  -44.9464 C   0  0  0  0  0  0  0  0  0  0  0  0
  -37.7582    2.3832  -45.5652 C   0  0  0  0  0  0  0  0  0  0  0  0
  -37.5836    2.0940  -47.0705 C   0  0  0  0  0  0  0  0  0  0  0  0
  -36.2377    1.3324  -47.1574 C   0  0  0  0  0  0  0  0  0  0  0  0
  -35.3674    2.0523  -46.0963 C   0  0  0  0  0  0  0  0  0  0  0  0
  -35.2249    7.9866  -43.1319 X   0  0  0  0  0  0  0  0  0  0  0  0
  1  2  1  0  0  0  0
  1 13  1  0  0  0  0
  2  3  1  0  0  0  0
  2  7  1  0  0  0  0
  3  4  1  0  0  0  0
  4  5  1  0  0  0  0
  5  6  1  0  0  0  0
  5  8  1  0  0  0  0
  6  7  1  0  0  0  0
  8  9  1  0  0  0  0
  8 12  1  0  0  0  0
  9 10  1  0  0  0  0
 10 11  1  0  0  0  0
 11 12  1  0  0  0  0
M  END
> <Index>
1768

> <PropertyFieldDistance>
nan

$$$$
2068162
BBcorina  12272117083D 1   1.00000     0.00000 
CORINA 4.3.0 0026  30.10.2019
 14 15  0  0  0  0  0  0  0  0999 V2000
  -37.6764   -0.1383  -48.3378 Cl  0  0  0  0  0  0  0  0  0  0  0  0
  -37.1293    0.8637  -47.0301 C   0  0  0  0  0  0  0  0  0  0  0  0
  -35.8626    0.6822  -46.4892 C   0  0  0  0  0  0  0  0  0  0  0  0
  -35.4661    1.5020  -45.4477 C   0  0  0  0  0  0  0  0  0  0  0  0
  -36.3434    2.4746  -44.9803 C   0  0  0  0  0  0  0  0  0  0  0  0
  -37.5431    2.6169  -45.5221 N   0  0  0  0  0  0  0  0  0  0  0  0
  -37.9492    1.8498  -46.5159 C   0  0  0  0  0  0  0  0  0  0  0  0
  -35.9570    3.3055  -43.9342 N   0  0  0  0  0  0  0  0  0  0  0  0
  -37.0243    4.2572  -43.5958 C   0  0  0  0  0  0  0  0  0  0  0  0
  -36.5920    5.0976  -42.3920 C   0  0  0  0  0  0  0  0  0  0  0  0
  -35.3436    5.8032  -42.7134 N   0  0  0  0  0  0  0  0  0  0  0  0
  -34.2762    4.8514  -43.0518 C   0  0  0  0  0  0  0  0  0  0  0  0
  -34.7086    4.0110  -44.2556 C   0  0  0  0  0  0  0  0  0  0  0  0
  -34.8684    6.8248  -41.4270 X   0  0  0  0  0  0  0  0  0  0  0  0
  1  2  1  0  0  0  0
  2  3  2  0  0  0  0
  2  7  1  0  0  0  0
  3  4  1  0  0  0  0
  4  5  2  0  0  0  0
  5  6  1  0  0  0  0
  5  8  1  0  0  0  0
  6  7  2  0  0  0  0
  8  9  1  0  0  0  0
  8 13  1  0  0  0  0
  9 10  1  0  0  0  0
 10 11  1  0  0  0  0
 11 12  1  0  0  0  0
 11 14  1  0  0  0  0
 12 13  1  0  0  0  0
M  END
> <Index>
1819

> <PropertyFieldDistance>
nan

$$$$
543008
BBcorina  12272117083D 1   1.00000     0.00000 
CORINA 4.3.0 0026  30.10.2019
 10 10  0  0  0  0  0  0  0  0999 V2000
  -32.5076    2.9485  -44.8340 C   0  0  0  0  0  0  0  0  0  0  0  0
  -33.2237    3.4419  -43.5752 C   0  0  0  0  0  0  0  0  0  0  0  0
  -34.6591    2.9124  -43.5643 C   0  0  0  0  0  0  0  0  0  0  0  0
  -35.3361    3.3007  -42.2483 C   0  0  0  0  0  0  0  0  0  0  0  0
  -36.7715    2.7712  -42.2375 C   0  0  0  0  0  0  0  0  0  0  0  0
  -37.5475    3.3772  -43.4085 C   0  0  0  0  0  0  0  0  0  0  0  0
  -36.8706    2.9888  -44.7245 C   0  0  0  0  0  0  0  0  0  0  0  0
  -35.4352    3.5184  -44.7354 C   0  0  0  0  0  0  0  0  0  0  0  0
  -38.9257    2.8687  -43.3981 N   0  0  0  0  0  0  0  0  0  0  0  0
  -40.0078    4.0176  -44.0563 X   0  0  0  0  0  0  0  0  0  0  0  0
  1  2  1  0  0  0  0
  2  3  1  0  0  0  0
  3  4  1  0  0  0  0
  3  8  1  0  0  0  0
  4  5  1  0  0  0  0
  5  6  1  0  0  0  0
  6  7  1  0  0  0  0
  6  9  1  0  0  0  0
  7  8  1  0  0  0  0
  9 10  1  0  0  0  0
M  END
> <Index>
1832

> <PropertyFieldDistance>
nan

$$$$
664388
BBcorina  12272117083D 1   1.00000     0.00000 
CORINA 4.3.0 0026  30.10.2019
 14 15  0  0  0  0  0  0  0  0999 V2000
  -37.7257   -0.2286  -48.4535 Br  0  0  0  0  0  0  0  0  0  0  0  0
  -37.1296    0.8633  -47.0293 C   0  0  0  0  0  0  0  0  0  0  0  0
  -35.8629    0.6817  -46.4885 C   0  0  0  0  0  0  0  0  0  0  0  0
  -35.4661    1.5017  -45.4474 C   0  0  0  0  0  0  0  0  0  0  0  0
  -36.3434    2.4747  -44.9802 C   0  0  0  0  0  0  0  0  0  0  0  0
  -37.5432    2.6170  -45.5220 N   0  0  0  0  0  0  0  0  0  0  0  0
  -37.9491    1.8495  -46.5156 C   0  0  0  0  0  0  0  0  0  0  0  0
  -35.9570    3.3054  -43.9342 N   0  0  0  0  0  0  0  0  0  0  0  0
  -37.0243    4.2572  -43.5958 C   0  0  0  0  0  0  0  0  0  0  0  0
  -36.5919    5.0976  -42.3920 C   0  0  0  0  0  0  0  0  0  0  0  0
  -35.3436    5.8031  -42.7133 N   0  0  0  0  0  0  0  0  0  0  0  0
  -34.2763    4.8514  -43.0517 C   0  0  0  0  0  0  0  0  0  0  0  0
  -34.7086    4.0110  -44.2556 C   0  0  0  0  0  0  0  0  0  0  0  0
  -34.8685    6.8248  -41.4271 X   0  0  0  0  0  0  0  0  0  0  0  0
  1  2  1  0  0  0  0
  2  3  2  0  0  0  0
  2  7  1  0  0  0  0
  3  4  1  0  0  0  0
  4  5  2  0  0  0  0
  5  6  1  0  0  0  0
  5  8  1  0  0  0  0
  6  7  2  0  0  0  0
  8  9  1  0  0  0  0
  8 13  1  0  0  0  0
  9 10  1  0  0  0  0
 10 11  1  0  0  0  0
 11 12  1  0  0  0  0
 11 14  1  0  0  0  0
 12 13  1  0  0  0  0
M  END
> <Index>
1852

> <PropertyFieldDistance>
nan

$$$$
7834646
BBcorina  12272117083D 1   1.00000     0.00000 
CORINA 4.3.0 0026  30.10.2019
  8  8  0  0  0  0  0  0  0  0999 V2000
  -33.2805    3.9306  -43.1457 C   0  0  0  0  0  0  0  0  0  0  0  0
  -34.1045    2.9380  -43.8484 N   0  0  0  0  0  0  0  0  0  0  0  0
  -35.5254    3.1011  -43.5131 C   0  0  0  0  0  0  0  0  0  0  0  0
  -36.3508    1.9758  -44.1608 C   0  0  0  0  0  0  0  0  0  0  0  0
  -37.8467    2.3453  -44.0851 C   0  0  0  0  0  0  0  0  0  0  0  0
  -37.8716    4.1761  -44.0750 S   0  0  0  0  0  0  0  0  0  0  0  0
  -36.0560    4.4395  -44.0909 C   0  0  0  0  0  0  0  0  0  0  0  0
  -33.5730    1.3488  -43.5079 X   0  0  0  0  0  0  0  0  0  0  0  0
  1  2  1  0  0  0  0
  2  3  1  0  0  0  0
  2  8  1  0  0  0  0
  3  4  1  0  0  0  0
  3  7  1  0  0  0  0
  4  5  1  0  0  0  0
  5  6  1  0  0  0  0
  6  7  1  0  0  0  0
M  END
> <Index>
1861

> <PropertyFieldDistance>
nan

$$$$
953290
BBcorina  12272117083D 1   1.00000     0.00000 
CORINA 4.3.0 0026  30.10.2019
 15 16  0  0  0  0  0  0  0  0999 V2000
  -34.8271    6.9535  -42.1287 N   0  0  0  0  0  0  0  0  0  0  0  0
  -35.1651    5.5548  -42.4240 C   0  0  0  0  0  0  0  0  0  0  0  0
  -36.6444    5.4542  -42.8064 C   0  0  0  0  0  0  0  0  0  0  0  0
  -36.9747    4.0049  -43.1704 C   0  0  0  0  0  0  0  0  0  0  0  0
  -36.1305    3.5765  -44.2929 N   0  0  0  0  0  0  0  0  0  0  0  0
  -36.5153    2.2380  -44.7601 C   0  0  0  0  0  0  0  0  0  0  0  0
  -35.8041    1.9336  -46.0534 C   0  0  0  0  0  0  0  0  0  0  0  0
  -34.5624    1.3166  -46.0523 C   0  0  0  0  0  0  0  0  0  0  0  0
  -33.9405    1.0528  -47.2580 C   0  0  0  0  0  0  0  0  0  0  0  0
  -34.5145    1.3810  -48.3990 N   0  0  0  0  0  0  0  0  0  0  0  0
  -35.6943    1.9687  -48.4381 C   0  0  0  0  0  0  0  0  0  0  0  0
  -36.3785    2.2585  -47.2727 C   0  0  0  0  0  0  0  0  0  0  0  0
  -34.7073    3.6195  -43.9337 C   0  0  0  0  0  0  0  0  0  0  0  0
  -34.3093    5.0572  -43.5922 C   0  0  0  0  0  0  0  0  0  0  0  0
  -35.2194    7.9702  -43.4465 X   0  0  0  0  0  0  0  0  0  0  0  0
  1  2  1  0  0  0  0
  1 15  1  0  0  0  0
  2  3  1  0  0  0  0
  2 14  1  0  0  0  0
  3  4  1  0  0  0  0
  4  5  1  0  0  0  0
  5  6  1  0  0  0  0
  5 13  1  0  0  0  0
  6  7  1  0  0  0  0
  7  8  2  0  0  0  0
  7 12  1  0  0  0  0
  8  9  1  0  0  0  0
  9 10  2  0  0  0  0
 10 11  1  0  0  0  0
 11 12  2  0  0  0  0
 13 14  1  0  0  0  0
M  END
> <Index>
1866

> <PropertyFieldDistance>
nan

$$$$
4836832
BBcorina  12272117083D 1   1.00000     0.00000 
CORINA 4.3.0 0026  30.10.2019
 13 13  0  0  0  0  0  0  0  0999 V2000
  -34.6942    5.9000  -41.1461 C   0  0  0  0  0  0  0  0  0  0  0  0
  -35.2254    5.4108  -42.4253 N   0  0  0  0  0  0  0  0  0  0  0  0
  -36.5625    4.8278  -42.2517 C   0  0  0  0  0  0  0  0  0  0  0  0
  -37.1541    4.4965  -43.6258 C   0  0  0  0  0  0  0  0  0  0  0  0
  -36.1969    3.6509  -44.3552 N   0  0  0  0  0  0  0  0  0  0  0  0
  -34.8000    4.1018  -44.4479 C   0  0  0  0  0  0  0  0  0  0  0  0
  -34.3024    4.4515  -43.0463 C   0  0  0  0  0  0  0  0  0  0  0  0
  -36.5882    2.4909  -44.9188 C   0  0  0  0  0  0  0  0  0  0  0  0
  -37.7432    2.1320  -44.8281 O   0  0  0  0  0  0  0  0  0  0  0  0
  -35.5907    1.6398  -45.6615 C   0  0  0  0  0  0  0  0  0  0  0  0
  -36.2880    0.3885  -46.1989 C   0  0  0  0  0  0  0  0  0  0  0  0
  -35.3156   -0.4411  -46.9229 N   0  0  0  0  0  0  0  0  0  0  0  0
  -36.0553   -1.8533  -47.5416 X   0  0  0  0  0  0  0  0  0  0  0  0
  1  2  1  0  0  0  0
  2  3  1  0  0  0  0
  2  7  1  0  0  0  0
  3  4  1  0  0  0  0
  4  5  1  0  0  0  0
  5  6  1  0  0  0  0
  5  8  1  0  0  0  0
  6  7  1  0  0  0  0
  8  9  2  0  0  0  0
  8 10  1  0  0  0  0
 10 11  1  0  0  0  0
 11 12  1  0  0  0  0
 12 13  1  0  0  0  0
M  END
> <Index>
1932

> <PropertyFieldDistance>
nan

$$$$
675746
BBcorina  12272117083D 1   1.00000     0.00000 
CORINA 4.3.0 0026  30.10.2019
 14 14  0  0  0  0  0  0  0  0999 V2000
  -37.1067    0.6073  -46.3007 C   0  0  0  0  0  0  0  0  0  0  0  0
  -37.1182    1.9465  -45.5609 C   0  0  0  0  0  0  0  0  0  0  0  0
  -37.6177    3.0447  -46.5017 C   0  0  0  0  0  0  0  0  0  0  0  0
  -35.7010    2.2823  -45.0922 C   0  0  0  0  0  0  0  0  0  0  0  0
  -34.7563    2.2991  -46.2956 C   0  0  0  0  0  0  0  0  0  0  0  0
  -33.3793    2.5197  -45.8342 N   0  0  0  0  0  0  0  0  0  0  0  0
  -35.6980    3.6030  -44.4490 N   0  0  0  0  0  0  0  0  0  0  0  0
  -36.8430    3.7488  -43.5411 C   0  0  0  0  0  0  0  0  0  0  0  0
  -36.8898    5.1805  -43.0026 C   0  0  0  0  0  0  0  0  0  0  0  0
  -35.5849    5.4847  -42.2614 C   0  0  0  0  0  0  0  0  0  0  0  0
  -35.6010    6.9342  -41.7717 C   0  0  0  0  0  0  0  0  0  0  0  0
  -34.4052    5.2787  -43.2155 C   0  0  0  0  0  0  0  0  0  0  0  0
  -34.4304    3.8440  -43.7478 C   0  0  0  0  0  0  0  0  0  0  0  0
  -32.2884    2.5456  -47.1508 X   0  0  0  0  0  0  0  0  0  0  0  0
  1  2  1  0  0  0  0
  2  3  1  0  0  0  0
  2  4  1  0  0  0  0
  4  5  1  0  0  0  0
  4  7  1  0  0  0  0
  5  6  1  0  0  0  0
  6 14  1  0  0  0  0
  7  8  1  0  0  0  0
  7 13  1  0  0  0  0
  8  9  1  0  0  0  0
  9 10  1  0  0  0  0
 10 11  1  0  0  0  0
 10 12  1  0  0  0  0
 12 13  1  0  0  0  0
M  END
> <Index>
1940

> <PropertyFieldDistance>
nan

$$$$
591970
BBcorina  12272117083D 1   1.00000     0.00000 
CORINA 4.3.0 0026  30.10.2019
 11 11  0  0  0  0  0  0  0  0999 V2000
  -36.3870    2.3721  -46.0134 C   0  0  0  0  0  0  0  0  0  0  0  0
  -36.1269    1.9776  -44.5582 C   0  0  0  0  0  0  0  0  0  0  0  0
  -37.3559    1.2597  -43.9969 C   0  0  0  0  0  0  0  0  0  0  0  0
  -37.1569    0.9940  -42.5659 N   0  0  0  0  0  0  0  0  0  0  0  0
  -35.8594    3.1841  -43.7639 N   0  0  0  0  0  0  0  0  0  0  0  0
  -37.0054    4.1042  -43.8011 C   0  0  0  0  0  0  0  0  0  0  0  0
  -36.7084    5.3168  -42.9149 C   0  0  0  0  0  0  0  0  0  0  0  0
  -35.4995    5.9396  -43.3573 O   0  0  0  0  0  0  0  0  0  0  0  0
  -34.3627    5.0720  -43.3335 C   0  0  0  0  0  0  0  0  0  0  0  0
  -34.6358    3.8570  -44.2239 C   0  0  0  0  0  0  0  0  0  0  0  0
  -38.5105    0.1909  -41.8976 X   0  0  0  0  0  0  0  0  0  0  0  0
  1  2  1  0  0  0  0
  2  3  1  0  0  0  0
  2  5  1  0  0  0  0
  3  4  1  0  0  0  0
  4 11  1  0  0  0  0
  5  6  1  0  0  0  0
  5 10  1  0  0  0  0
  6  7  1  0  0  0  0
  7  8  1  0  0  0  0
  8  9  1  0  0  0  0
  9 10  1  0  0  0  0
M  END
> <Index>
1942

> <PropertyFieldDistance>
nan

$$$$
517736
BBcorina  12272117083D 1   1.00000     0.00000 
CORINA 4.3.0 0026  30.10.2019
 14 15  0  0  0  0  0  0  0  0999 V2000
  -36.9125    0.3341  -44.7643 N   0  0  0  0  0  0  0  0  0  0  0  0
  -37.0077    1.7900  -44.9348 C   0  0  0  0  0  0  0  0  0  0  0  0
  -35.6738    2.4362  -44.5551 C   0  0  0  0  0  0  0  0  0  0  0  0
  -35.7256    3.8747  -44.8482 N   0  0  0  0  0  0  0  0  0  0  0  0
  -36.8908    4.5024  -44.2048 C   0  0  0  0  0  0  0  0  0  0  0  0
  -36.8827    4.1345  -42.7209 C   0  0  0  0  0  0  0  0  0  0  0  0
  -35.5266    4.4191  -42.1279 C   0  0  0  0  0  0  0  0  0  0  0  0
  -35.4090    4.4855  -40.7481 C   0  0  0  0  0  0  0  0  0  0  0  0
  -34.1848    4.7442  -40.1640 C   0  0  0  0  0  0  0  0  0  0  0  0
  -33.0688    4.9272  -40.9586 C   0  0  0  0  0  0  0  0  0  0  0  0
  -33.1842    4.8578  -42.3326 C   0  0  0  0  0  0  0  0  0  0  0  0
  -34.4141    4.6038  -42.9211 C   0  0  0  0  0  0  0  0  0  0  0  0
  -34.4908    4.5422  -44.4241 C   0  0  0  0  0  0  0  0  0  0  0  0
  -38.3857   -0.4290  -45.1788 X   0  0  0  0  0  0  0  0  0  0  0  0
  1  2  1  0  0  0  0
  1 14  1  0  0  0  0
  2  3  1  0  0  0  0
  3  4  1  0  0  0  0
  4  5  1  0  0  0  0
  4 13  1  0  0  0  0
  5  6  1  0  0  0  0
  6  7  1  0  0  0  0
  7  8  2  0  0  0  0
  7 12  1  0  0  0  0
  8  9  1  0  0  0  0
  9 10  2  0  0  0  0
 10 11  1  0  0  0  0
 11 12  2  0  0  0  0
 12 13  1  0  0  0  0
M  END
> <Index>
1949

> <PropertyFieldDistance>
nan

$$$$
4836838
BBcorina  12272117083D 1   1.00000     0.00000 
CORINA 4.3.0 0026  30.10.2019
 13 13  0  0  0  0  0  0  0  0999 V2000
  -35.5923    1.7940  -45.8744 C   0  0  0  0  0  0  0  0  0  0  0  0
  -36.6878    2.6432  -45.2266 C   0  0  0  0  0  0  0  0  0  0  0  0
  -36.1546    3.2953  -44.0231 N   0  0  0  0  0  0  0  0  0  0  0  0
  -37.0956    4.2995  -43.5075 C   0  0  0  0  0  0  0  0  0  0  0  0
  -36.5403    4.8975  -42.2127 C   0  0  0  0  0  0  0  0  0  0  0  0
  -35.2259    5.4987  -42.4779 N   0  0  0  0  0  0  0  0  0  0  0  0
  -34.2850    4.4945  -42.9936 C   0  0  0  0  0  0  0  0  0  0  0  0
  -34.8402    3.8965  -44.2883 C   0  0  0  0  0  0  0  0  0  0  0  0
  -34.6927    6.1508  -41.2744 C   0  0  0  0  0  0  0  0  0  0  0  0
  -34.3085    5.0859  -40.2452 C   0  0  0  0  0  0  0  0  0  0  0  0
  -33.4559    6.9719  -41.6447 C   0  0  0  0  0  0  0  0  0  0  0  0
  -33.7973    7.9141  -42.7188 N   0  0  0  0  0  0  0  0  0  0  0  0
  -32.4398    8.8539  -43.1640 X   0  0  0  0  0  0  0  0  0  0  0  0
  1  2  1  0  0  0  0
  2  3  1  0  0  0  0
  3  4  1  0  0  0  0
  3  8  1  0  0  0  0
  4  5  1  0  0  0  0
  5  6  1  0  0  0  0
  6  7  1  0  0  0  0
  6  9  1  0  0  0  0
  7  8  1  0  0  0  0
  9 10  1  0  0  0  0
  9 11  1  0  0  0  0
 11 12  1  0  0  0  0
 12 13  1  0  0  0  0
M  END
> <Index>
1961

> <PropertyFieldDistance>
nan

$$$$
7425604
BBcorina  12272117083D 1   1.00000     0.00000 
CORINA 4.3.0 0026  30.10.2019
 12 12  0  0  0  0  0  0  0  0999 V2000
  -35.0898    0.7880  -44.5300 O   0  0  0  0  0  0  0  0  0  0  0  0
  -35.5846    1.5785  -45.6127 C   0  0  0  0  0  0  0  0  0  0  0  0
  -36.1783    0.6615  -46.6840 C   0  0  0  0  0  0  0  0  0  0  0  0
  -35.1385   -0.2507  -47.1787 N   0  0  0  0  0  0  0  0  0  0  0  0
  -36.6675    2.5286  -45.0975 C   0  0  0  0  0  0  0  0  0  0  0  0
  -36.1051    3.3891  -44.0481 N   0  0  0  0  0  0  0  0  0  0  0  0
  -37.0920    4.3760  -43.5918 C   0  0  0  0  0  0  0  0  0  0  0  0
  -36.5239    5.1557  -42.4037 C   0  0  0  0  0  0  0  0  0  0  0  0
  -35.2320    5.8579  -42.8310 C   0  0  0  0  0  0  0  0  0  0  0  0
  -34.2390    4.8129  -43.3472 C   0  0  0  0  0  0  0  0  0  0  0  0
  -34.8734    4.0432  -44.5079 C   0  0  0  0  0  0  0  0  0  0  0  0
  -35.7613   -1.2956  -48.3806 X   0  0  0  0  0  0  0  0  0  0  0  0
  1  2  1  0  0  0  0
  2  3  1  0  0  0  0
  2  5  1  0  0  0  0
  3  4  1  0  0  0  0
  4 12  1  0  0  0  0
  5  6  1  0  0  0  0
  6  7  1  0  0  0  0
  6 11  1  0  0  0  0
  7  8  1  0  0  0  0
  8  9  1  0  0  0  0
  9 10  1  0  0  0  0
 10 11  1  0  0  0  0
M  END
> <Index>
1967

> <PropertyFieldDistance>
nan

$$$$
732126
BBcorina  12272117083D 1   1.00000     0.00000 
CORINA 4.3.0 0026  30.10.2019
 12 12  0  0  0  0  0  0  0  0999 V2000
  -36.8667    1.4787  -45.1759 C   0  0  0  0  0  0  0  0  0  0  0  0
  -35.8773    2.6161  -45.4365 C   0  0  0  0  0  0  0  0  0  0  0  0
  -36.4074    3.5052  -46.5632 C   0  0  0  0  0  0  0  0  0  0  0  0
  -35.4339    4.5678  -46.8478 N   0  0  0  0  0  0  0  0  0  0  0  0
  -35.7183    3.4164  -44.2149 N   0  0  0  0  0  0  0  0  0  0  0  0
  -36.9414    4.1730  -43.9186 C   0  0  0  0  0  0  0  0  0  0  0  0
  -36.7925    4.8777  -42.5683 C   0  0  0  0  0  0  0  0  0  0  0  0
  -35.5870    5.8203  -42.6204 C   0  0  0  0  0  0  0  0  0  0  0  0
  -34.3346    5.0154  -42.9782 C   0  0  0  0  0  0  0  0  0  0  0  0
  -34.5548    4.3066  -44.3166 C   0  0  0  0  0  0  0  0  0  0  0  0
  -33.3133    3.4847  -44.6686 C   0  0  0  0  0  0  0  0  0  0  0  0
  -35.9886    5.5866  -48.1041 X   0  0  0  0  0  0  0  0  0  0  0  0
  1  2  1  0  0  0  0
  2  3  1  0  0  0  0
  2  5  1  0  0  0  0
  3  4  1  0  0  0  0
  4 12  1  0  0  0  0
  5  6  1  0  0  0  0
  5 10  1  0  0  0  0
  6  7  1  0  0  0  0
  7  8  1  0  0  0  0
  8  9  1  0  0  0  0
  9 10  1  0  0  0  0
 10 11  1  0  0  0  0
M  END
> <Index>
1968

> <PropertyFieldDistance>
nan

$$$$
752088
BBcorina  12272117083D 1   1.00000     0.00000 
CORINA 4.3.0 0026  30.10.2019
 12 12  0  0  0  0  0  0  0  0999 V2000
  -36.4094    2.3525  -46.0026 C   0  0  0  0  0  0  0  0  0  0  0  0
  -36.1082    1.9823  -44.5489 C   0  0  0  0  0  0  0  0  0  0  0  0
  -37.3081    1.2445  -43.9515 C   0  0  0  0  0  0  0  0  0  0  0  0
  -37.0681    0.9948  -42.5239 N   0  0  0  0  0  0  0  0  0  0  0  0
  -35.8503    3.2044  -43.7758 N   0  0  0  0  0  0  0  0  0  0  0  0
  -37.0072    4.1077  -43.8178 C   0  0  0  0  0  0  0  0  0  0  0  0
  -36.7610    5.2978  -42.8878 C   0  0  0  0  0  0  0  0  0  0  0  0
  -35.4966    6.0364  -43.3357 C   0  0  0  0  0  0  0  0  0  0  0  0
  -34.3161    5.0612  -43.3294 C   0  0  0  0  0  0  0  0  0  0  0  0
  -33.0605    5.7758  -43.8331 C   0  0  0  0  0  0  0  0  0  0  0  0
  -34.6333    3.8780  -44.2466 C   0  0  0  0  0  0  0  0  0  0  0  0
  -38.3881    0.1701  -41.8157 X   0  0  0  0  0  0  0  0  0  0  0  0
  1  2  1  0  0  0  0
  2  3  1  0  0  0  0
  2  5  1  0  0  0  0
  3  4  1  0  0  0  0
  4 12  1  0  0  0  0
  5  6  1  0  0  0  0
  5 11  1  0  0  0  0
  6  7  1  0  0  0  0
  7  8  1  0  0  0  0
  8  9  1  0  0  0  0
  9 10  1  0  0  0  0
  9 11  1  0  0  0  0
M  END
> <Index>
1972

> <PropertyFieldDistance>
nan

$$$$
752112
BBcorina  12272117083D 1   1.00000     0.00000 
CORINA 4.3.0 0026  30.10.2019
 11 11  0  0  0  0  0  0  0  0999 V2000
  -34.6225    6.6349  -41.6927 C   0  0  0  0  0  0  0  0  0  0  0  0
  -35.2318    5.8728  -42.8712 C   0  0  0  0  0  0  0  0  0  0  0  0
  -36.5217    5.1812  -42.4215 C   0  0  0  0  0  0  0  0  0  0  0  0
  -37.0946    4.3727  -43.5877 C   0  0  0  0  0  0  0  0  0  0  0  0
  -36.1095    3.3749  -44.0238 N   0  0  0  0  0  0  0  0  0  0  0  0
  -36.6762    2.4890  -45.0496 C   0  0  0  0  0  0  0  0  0  0  0  0
  -35.5626    1.6328  -45.6558 C   0  0  0  0  0  0  0  0  0  0  0  0
  -36.1293    0.7468  -46.6814 N   0  0  0  0  0  0  0  0  0  0  0  0
  -34.8799    4.0177  -44.5047 C   0  0  0  0  0  0  0  0  0  0  0  0
  -34.2409    4.8155  -43.3659 C   0  0  0  0  0  0  0  0  0  0  0  0
  -34.9155   -0.2300  -47.3861 X   0  0  0  0  0  0  0  0  0  0  0  0
  1  2  1  0  0  0  0
  2  3  1  0  0  0  0
  2 10  1  0  0  0  0
  3  4  1  0  0  0  0
  4  5  1  0  0  0  0
  5  6  1  0  0  0  0
  5  9  1  0  0  0  0
  6  7  1  0  0  0  0
  7  8  1  0  0  0  0
  8 11  1  0  0  0  0
  9 10  1  0  0  0  0
M  END
> <Index>
1977

> <PropertyFieldDistance>
nan

$$$$
759520
BBcorina  12272117083D 1   1.00000     0.00000 
CORINA 4.3.0 0026  30.10.2019
 11 11  0  0  0  0  0  0  0  0999 V2000
  -38.3732    3.6636  -43.1369 C   0  0  0  0  0  0  0  0  0  0  0  0
  -37.0947    4.3727  -43.5877 C   0  0  0  0  0  0  0  0  0  0  0  0
  -36.5217    5.1812  -42.4215 C   0  0  0  0  0  0  0  0  0  0  0  0
  -35.2317    5.8728  -42.8712 C   0  0  0  0  0  0  0  0  0  0  0  0
  -34.2408    4.8156  -43.3658 C   0  0  0  0  0  0  0  0  0  0  0  0
  -34.8799    4.0177  -44.5048 C   0  0  0  0  0  0  0  0  0  0  0  0
  -36.1096    3.3749  -44.0239 N   0  0  0  0  0  0  0  0  0  0  0  0
  -36.6762    2.4890  -45.0496 C   0  0  0  0  0  0  0  0  0  0  0  0
  -35.5626    1.6328  -45.6558 C   0  0  0  0  0  0  0  0  0  0  0  0
  -36.1293    0.7469  -46.6814 N   0  0  0  0  0  0  0  0  0  0  0  0
  -34.9155   -0.2299  -47.3862 X   0  0  0  0  0  0  0  0  0  0  0  0
  1  2  1  0  0  0  0
  2  3  1  0  0  0  0
  2  7  1  0  0  0  0
  3  4  1  0  0  0  0
  4  5  1  0  0  0  0
  5  6  1  0  0  0  0
  6  7  1  0  0  0  0
  7  8  1  0  0  0  0
  8  9  1  0  0  0  0
  9 10  1  0  0  0  0
 10 11  1  0  0  0  0
M  END
> <Index>
1978

> <PropertyFieldDistance>
nan

$$$$
759544
BBcorina  12272117083D 1   1.00000     0.00000 
CORINA 4.3.0 0026  30.10.2019
 11 11  0  0  0  0  0  0  0  0999 V2000
  -33.0526    5.7403  -43.8786 C   0  0  0  0  0  0  0  0  0  0  0  0
  -34.3086    5.0426  -43.3526 C   0  0  0  0  0  0  0  0  0  0  0  0
  -35.4756    6.0337  -43.3380 C   0  0  0  0  0  0  0  0  0  0  0  0
  -36.7417    5.3123  -42.8675 C   0  0  0  0  0  0  0  0  0  0  0  0
  -37.0207    4.1259  -43.7932 C   0  0  0  0  0  0  0  0  0  0  0  0
  -35.8754    3.2070  -43.7715 N   0  0  0  0  0  0  0  0  0  0  0  0
  -36.1636    1.9885  -44.5398 C   0  0  0  0  0  0  0  0  0  0  0  0
  -36.3175    2.3435  -46.0201 C   0  0  0  0  0  0  0  0  0  0  0  0
  -36.6056    1.1250  -46.7885 N   0  0  0  0  0  0  0  0  0  0  0  0
  -34.6580    3.8640  -44.2642 C   0  0  0  0  0  0  0  0  0  0  0  0
  -36.7854    1.4777  -48.4520 X   0  0  0  0  0  0  0  0  0  0  0  0
  1  2  1  0  0  0  0
  2  3  1  0  0  0  0
  2 10  1  0  0  0  0
  3  4  1  0  0  0  0
  4  5  1  0  0  0  0
  5  6  1  0  0  0  0
  6  7  1  0  0  0  0
  6 10  1  0  0  0  0
  7  8  1  0  0  0  0
  8  9  1  0  0  0  0
  9 11  1  0  0  0  0
M  END
> <Index>
1979

> <PropertyFieldDistance>
nan

$$$$
751896
BBcorina  12272117083D 1   1.00000     0.00000 
CORINA 4.3.0 0026  30.10.2019
 12 12  0  0  0  0  0  0  0  0999 V2000
  -33.0526    5.7403  -43.8786 C   0  0  0  0  0  0  0  0  0  0  0  0
  -34.3086    5.0426  -43.3526 C   0  0  0  0  0  0  0  0  0  0  0  0
  -35.4756    6.0337  -43.3380 C   0  0  0  0  0  0  0  0  0  0  0  0
  -36.7417    5.3123  -42.8675 C   0  0  0  0  0  0  0  0  0  0  0  0
  -37.0207    4.1259  -43.7932 C   0  0  0  0  0  0  0  0  0  0  0  0
  -35.8754    3.2070  -43.7715 N   0  0  0  0  0  0  0  0  0  0  0  0
  -36.1636    1.9885  -44.5398 C   0  0  0  0  0  0  0  0  0  0  0  0
  -36.3175    2.3435  -46.0201 C   0  0  0  0  0  0  0  0  0  0  0  0
  -36.6176    1.0744  -46.8203 C   0  0  0  0  0  0  0  0  0  0  0  0
  -36.7654    1.4152  -48.2416 N   0  0  0  0  0  0  0  0  0  0  0  0
  -34.6580    3.8640  -44.2642 C   0  0  0  0  0  0  0  0  0  0  0  0
  -37.1023    0.0220  -49.1741 X   0  0  0  0  0  0  0  0  0  0  0  0
  1  2  1  0  0  0  0
  2  3  1  0  0  0  0
  2 11  1  0  0  0  0
  3  4  1  0  0  0  0
  4  5  1  0  0  0  0
  5  6  1  0  0  0  0
  6  7  1  0  0  0  0
  6 11  1  0  0  0  0
  7  8  1  0  0  0  0
  8  9  1  0  0  0  0
  9 10  1  0  0  0  0
 10 12  1  0  0  0  0
M  END
> <Index>
1980

> <PropertyFieldDistance>
nan

$$$$
5128428
BBcorina  12272117083D 1   1.00000     0.00000 
CORINA 4.3.0 0026  30.10.2019
 12 12  0  0  0  0  0  0  0  0999 V2000
  -34.6627    6.5846  -41.7704 O   0  0  0  0  0  0  0  0  0  0  0  0
  -35.2318    5.8728  -42.8713 C   0  0  0  0  0  0  0  0  0  0  0  0
  -36.5217    5.1812  -42.4214 C   0  0  0  0  0  0  0  0  0  0  0  0
  -37.0947    4.3727  -43.5877 C   0  0  0  0  0  0  0  0  0  0  0  0
  -36.1096    3.3749  -44.0239 N   0  0  0  0  0  0  0  0  0  0  0  0
  -36.6762    2.4890  -45.0496 C   0  0  0  0  0  0  0  0  0  0  0  0
  -35.5626    1.6328  -45.6558 C   0  0  0  0  0  0  0  0  0  0  0  0
  -36.1528    0.7101  -46.7241 C   0  0  0  0  0  0  0  0  0  0  0  0
  -35.0835   -0.1120  -47.3061 N   0  0  0  0  0  0  0  0  0  0  0  0
  -34.8799    4.0176  -44.5047 C   0  0  0  0  0  0  0  0  0  0  0  0
  -34.2408    4.8156  -43.3659 C   0  0  0  0  0  0  0  0  0  0  0  0
  -35.7016   -1.1602  -48.5075 X   0  0  0  0  0  0  0  0  0  0  0  0
  1  2  1  0  0  0  0
  2  3  1  0  0  0  0
  2 11  1  0  0  0  0
  3  4  1  0  0  0  0
  4  5  1  0  0  0  0
  5  6  1  0  0  0  0
  5 10  1  0  0  0  0
  6  7  1  0  0  0  0
  7  8  1  0  0  0  0
  8  9  1  0  0  0  0
  9 12  1  0  0  0  0
 10 11  1  0  0  0  0
M  END
> <Index>
1982

> <PropertyFieldDistance>
nan

$$$$
4836840
BBcorina  12272117083D 1   1.00000     0.00000 
CORINA 4.3.0 0026  30.10.2019
 12 12  0  0  0  0  0  0  0  0999 V2000
  -35.7214    1.5891  -45.7499 C   0  0  0  0  0  0  0  0  0  0  0  0
  -36.6274    2.7488  -45.3315 C   0  0  0  0  0  0  0  0  0  0  0  0
  -36.1119    3.3512  -44.0947 N   0  0  0  0  0  0  0  0  0  0  0  0
  -37.0762    4.3073  -43.5330 C   0  0  0  0  0  0  0  0  0  0  0  0
  -36.5378    4.8515  -42.2076 C   0  0  0  0  0  0  0  0  0  0  0  0
  -35.2363    5.4940  -42.4375 N   0  0  0  0  0  0  0  0  0  0  0  0
  -34.7208    6.0964  -41.2008 C   0  0  0  0  0  0  0  0  0  0  0  0
  -33.2697    6.5325  -41.4122 C   0  0  0  0  0  0  0  0  0  0  0  0
  -32.7542    7.1348  -40.1754 N   0  0  0  0  0  0  0  0  0  0  0  0
  -34.2721    4.5379  -42.9992 C   0  0  0  0  0  0  0  0  0  0  0  0
  -34.8104    3.9937  -44.3245 C   0  0  0  0  0  0  0  0  0  0  0  0
  -31.1311    7.6372  -40.3687 X   0  0  0  0  0  0  0  0  0  0  0  0
  1  2  1  0  0  0  0
  2  3  1  0  0  0  0
  3  4  1  0  0  0  0
  3 11  1  0  0  0  0
  4  5  1  0  0  0  0
  5  6  1  0  0  0  0
  6  7  1  0  0  0  0
  6 10  1  0  0  0  0
  7  8  1  0  0  0  0
  8  9  1  0  0  0  0
  9 12  1  0  0  0  0
 10 11  1  0  0  0  0
M  END
> <Index>
1983

> <PropertyFieldDistance>
nan

$$$$
677496
BBcorina  12272117083D 1   1.00000     0.00000 
CORINA 4.3.0 0026  30.10.2019
 13 13  0  0  0  0  0  0  0  0999 V2000
  -35.5923    1.7940  -45.8744 C   0  0  0  0  0  0  0  0  0  0  0  0
  -36.6878    2.6432  -45.2266 C   0  0  0  0  0  0  0  0  0  0  0  0
  -36.1546    3.2952  -44.0231 N   0  0  0  0  0  0  0  0  0  0  0  0
  -37.0955    4.2995  -43.5076 C   0  0  0  0  0  0  0  0  0  0  0  0
  -36.5404    4.8975  -42.2127 C   0  0  0  0  0  0  0  0  0  0  0  0
  -35.2259    5.4987  -42.4779 N   0  0  0  0  0  0  0  0  0  0  0  0
  -34.6927    6.1508  -41.2744 C   0  0  0  0  0  0  0  0  0  0  0  0
  -33.2330    6.5435  -41.5113 C   0  0  0  0  0  0  0  0  0  0  0  0
  -32.6777    7.2226  -40.2578 C   0  0  0  0  0  0  0  0  0  0  0  0
  -31.2763    7.5997  -40.4853 N   0  0  0  0  0  0  0  0  0  0  0  0
  -34.2850    4.4945  -42.9936 C   0  0  0  0  0  0  0  0  0  0  0  0
  -34.8402    3.8966  -44.2884 C   0  0  0  0  0  0  0  0  0  0  0  0
  -30.6155    8.3637  -39.1055 X   0  0  0  0  0  0  0  0  0  0  0  0
  1  2  1  0  0  0  0
  2  3  1  0  0  0  0
  3  4  1  0  0  0  0
  3 12  1  0  0  0  0
  4  5  1  0  0  0  0
  5  6  1  0  0  0  0
  6  7  1  0  0  0  0
  6 11  1  0  0  0  0
  7  8  1  0  0  0  0
  8  9  1  0  0  0  0
  9 10  1  0  0  0  0
 10 13  1  0  0  0  0
 11 12  1  0  0  0  0
M  END
> <Index>
1984

> <PropertyFieldDistance>
nan

$$$$
745314
BBcorina  12272117083D 1   1.00000     0.00000 
CORINA 4.3.0 0026  30.10.2019
 13 13  0  0  0  0  0  0  0  0999 V2000
  -35.5907    1.6389  -45.6604 C   0  0  0  0  0  0  0  0  0  0  0  0
  -36.5882    2.4909  -44.9185 C   0  0  0  0  0  0  0  0  0  0  0  0
  -37.7435    2.1328  -44.8291 O   0  0  0  0  0  0  0  0  0  0  0  0
  -36.1965    3.6506  -44.3547 N   0  0  0  0  0  0  0  0  0  0  0  0
  -37.1537    4.4970  -43.6263 C   0  0  0  0  0  0  0  0  0  0  0  0
  -36.5627    4.8283  -42.2518 C   0  0  0  0  0  0  0  0  0  0  0  0
  -35.2252    5.4104  -42.4248 N   0  0  0  0  0  0  0  0  0  0  0  0
  -34.6945    5.8998  -41.1453 C   0  0  0  0  0  0  0  0  0  0  0  0
  -33.2187    6.2668  -41.3123 C   0  0  0  0  0  0  0  0  0  0  0  0
  -32.6880    6.7561  -40.0328 N   0  0  0  0  0  0  0  0  0  0  0  0
  -34.3023    4.4504  -43.0448 C   0  0  0  0  0  0  0  0  0  0  0  0
  -34.8006    4.1036  -44.4518 C   0  0  0  0  0  0  0  0  0  0  0  0
  -31.0371    7.1784  -40.1755 X   0  0  0  0  0  0  0  0  0  0  0  0
  1  2  1  0  0  0  0
  2  3  2  0  0  0  0
  2  4  1  0  0  0  0
  4  5  1  0  0  0  0
  4 12  1  0  0  0  0
  5  6  1  0  0  0  0
  6  7  1  0  0  0  0
  7  8  1  0  0  0  0
  7 11  1  0  0  0  0
  8  9  1  0  0  0  0
  9 10  1  0  0  0  0
 10 13  1  0  0  0  0
 11 12  1  0  0  0  0
M  END
> <Index>
1987

> <PropertyFieldDistance>
nan

$$$$
759568
BBcorina  12272117083D 1   1.00000     0.00000 
CORINA 4.3.0 0026  30.10.2019
 12 12  0  0  0  0  0  0  0  0999 V2000
  -32.8311    5.0984  -43.2006 C   0  0  0  0  0  0  0  0  0  0  0  0
  -34.3092    5.0573  -43.5938 C   0  0  0  0  0  0  0  0  0  0  0  0
  -35.1630    5.5577  -42.4253 C   0  0  0  0  0  0  0  0  0  0  0  0
  -36.6429    5.4577  -42.8054 C   0  0  0  0  0  0  0  0  0  0  0  0
  -36.9246    6.3612  -44.0076 C   0  0  0  0  0  0  0  0  0  0  0  0
  -36.9750    4.0081  -43.1667 C   0  0  0  0  0  0  0  0  0  0  0  0
  -36.1324    3.5771  -44.2896 N   0  0  0  0  0  0  0  0  0  0  0  0
  -36.5187    2.2380  -44.7539 C   0  0  0  0  0  0  0  0  0  0  0  0
  -35.7984    1.9262  -46.0673 C   0  0  0  0  0  0  0  0  0  0  0  0
  -36.1847    0.5871  -46.5317 N   0  0  0  0  0  0  0  0  0  0  0  0
  -34.7089    3.6194  -43.9323 C   0  0  0  0  0  0  0  0  0  0  0  0
  -35.4003    0.1980  -48.0004 X   0  0  0  0  0  0  0  0  0  0  0  0
  1  2  1  0  0  0  0
  2  3  1  0  0  0  0
  2 11  1  0  0  0  0
  3  4  1  0  0  0  0
  4  5  1  0  0  0  0
  4  6  1  0  0  0  0
  6  7  1  0  0  0  0
  7  8  1  0  0  0  0
  7 11  1  0  0  0  0
  8  9  1  0  0  0  0
  9 10  1  0  0  0  0
 10 12  1  0  0  0  0
M  END
> <Index>
1989

> <PropertyFieldDistance>
nan

$$$$
782674
BBcorina  12272117083D 1   1.00000     0.00000 
CORINA 4.3.0 0026  30.10.2019
 13 13  0  0  0  0  0  0  0  0999 V2000
  -33.8855    3.8709  -42.2159 C   0  0  0  0  0  0  0  0  0  0  0  0
  -34.2408    4.8156  -43.3659 C   0  0  0  0  0  0  0  0  0  0  0  0
  -35.2318    5.8728  -42.8712 C   0  0  0  0  0  0  0  0  0  0  0  0
  -36.5217    5.1812  -42.4214 C   0  0  0  0  0  0  0  0  0  0  0  0
  -37.5403    6.2346  -41.9811 C   0  0  0  0  0  0  0  0  0  0  0  0
  -37.0947    4.3727  -43.5877 C   0  0  0  0  0  0  0  0  0  0  0  0
  -36.1095    3.3749  -44.0239 N   0  0  0  0  0  0  0  0  0  0  0  0
  -36.6762    2.4890  -45.0496 C   0  0  0  0  0  0  0  0  0  0  0  0
  -35.5626    1.6328  -45.6557 C   0  0  0  0  0  0  0  0  0  0  0  0
  -36.1528    0.7101  -46.7241 C   0  0  0  0  0  0  0  0  0  0  0  0
  -35.0835   -0.1120  -47.3061 N   0  0  0  0  0  0  0  0  0  0  0  0
  -34.8799    4.0176  -44.5047 C   0  0  0  0  0  0  0  0  0  0  0  0
  -35.7015   -1.1602  -48.5075 X   0  0  0  0  0  0  0  0  0  0  0  0
  1  2  1  0  0  0  0
  2  3  1  0  0  0  0
  2 12  1  0  0  0  0
  3  4  1  0  0  0  0
  4  5  1  0  0  0  0
  4  6  1  0  0  0  0
  6  7  1  0  0  0  0
  7  8  1  0  0  0  0
  7 12  1  0  0  0  0
  8  9  1  0  0  0  0
  9 10  1  0  0  0  0
 10 11  1  0  0  0  0
 11 13  1  0  0  0  0
M  END
> <Index>
1990

> <PropertyFieldDistance>
nan

$$$$
662356
BBcorina  12272117083D 1   1.00000     0.00000 
CORINA 4.3.0 0026  30.10.2019
 11 11  0  0  0  0  0  0  0  0999 V2000
  -36.1693    0.6244  -46.6334 C   0  0  0  0  0  0  0  0  0  0  0  0
  -35.5626    1.6328  -45.6558 C   0  0  0  0  0  0  0  0  0  0  0  0
  -36.6762    2.4890  -45.0496 C   0  0  0  0  0  0  0  0  0  0  0  0
  -36.1095    3.3750  -44.0238 N   0  0  0  0  0  0  0  0  0  0  0  0
  -37.0947    4.3727  -43.5877 C   0  0  0  0  0  0  0  0  0  0  0  0
  -36.5217    5.1812  -42.4215 C   0  0  0  0  0  0  0  0  0  0  0  0
  -35.2319    5.8728  -42.8712 C   0  0  0  0  0  0  0  0  0  0  0  0
  -34.2409    4.8155  -43.3659 C   0  0  0  0  0  0  0  0  0  0  0  0
  -34.8799    4.0176  -44.5047 C   0  0  0  0  0  0  0  0  0  0  0  0
  -34.8593    0.9142  -44.5847 N   0  0  0  0  0  0  0  0  0  0  0  0
  -33.2230    0.6427  -45.0007 X   0  0  0  0  0  0  0  0  0  0  0  0
  1  2  1  0  0  0  0
  2  3  1  0  0  0  0
  2 10  1  0  0  0  0
  3  4  1  0  0  0  0
  4  5  1  0  0  0  0
  4  9  1  0  0  0  0
  5  6  1  0  0  0  0
  6  7  1  0  0  0  0
  7  8  1  0  0  0  0
  8  9  1  0  0  0  0
 10 11  1  0  0  0  0
M  END
> <Index>
1996

> <PropertyFieldDistance>
nan

$$$$
759634
BBcorina  12272117083D 1   1.00000     0.00000 
CORINA 4.3.0 0026  30.10.2019
 11 11  0  0  0  0  0  0  0  0999 V2000
  -37.1031    0.6971  -46.4439 C   0  0  0  0  0  0  0  0  0  0  0  0
  -37.0724    1.7079  -45.2957 C   0  0  0  0  0  0  0  0  0  0  0  0
  -35.7347    2.4506  -45.3056 C   0  0  0  0  0  0  0  0  0  0  0  0
  -35.6565    3.3343  -44.1348 N   0  0  0  0  0  0  0  0  0  0  0  0
  -36.9018    4.0996  -43.9683 C   0  0  0  0  0  0  0  0  0  0  0  0
  -36.7990    4.9605  -42.7064 C   0  0  0  0  0  0  0  0  0  0  0  0
  -35.6511    5.8078  -42.8046 O   0  0  0  0  0  0  0  0  0  0  0  0
  -34.4217    5.0953  -42.9668 C   0  0  0  0  0  0  0  0  0  0  0  0
  -34.4993    4.2358  -44.2315 C   0  0  0  0  0  0  0  0  0  0  0  0
  -37.2310    1.0019  -44.0173 N   0  0  0  0  0  0  0  0  0  0  0  0
  -38.8814    0.8741  -43.5884 X   0  0  0  0  0  0  0  0  0  0  0  0
  1  2  1  0  0  0  0
  2  3  1  0  0  0  0
  2 10  1  0  0  0  0
  3  4  1  0  0  0  0
  4  5  1  0  0  0  0
  4  9  1  0  0  0  0
  5  6  1  0  0  0  0
  6  7  1  0  0  0  0
  7  8  1  0  0  0  0
  8  9  1  0  0  0  0
 10 11  1  0  0  0  0
M  END
> <Index>
1998

> <PropertyFieldDistance>
nan

$$$$
662360
BBcorina  12272117083D 1   1.00000     0.00000 
CORINA 4.3.0 0026  30.10.2019
 13 14  0  0  0  0  0  0  0  0999 V2000
  -35.4391   -0.1182  -47.3668 C   0  0  0  0  0  0  0  0  0  0  0  0
  -36.0898    0.6478  -46.2438 C   0  0  0  0  0  0  0  0  0  0  0  0
  -37.1226    0.1698  -45.5492 C   0  0  0  0  0  0  0  0  0  0  0  0
  -37.5686    1.3681  -44.3374 S   0  0  0  0  0  0  0  0  0  0  0  0
  -36.3252    2.4040  -44.8887 C   0  0  0  0  0  0  0  0  0  0  0  0
  -35.6830    1.8475  -45.8683 N   0  0  0  0  0  0  0  0  0  0  0  0
  -36.0411    3.6541  -44.3614 N   0  0  0  0  0  0  0  0  0  0  0  0
  -36.9585    3.9825  -43.2613 C   0  0  0  0  0  0  0  0  0  0  0  0
  -36.6645    5.3986  -42.7606 C   0  0  0  0  0  0  0  0  0  0  0  0
  -35.2658    5.4779  -42.3168 N   0  0  0  0  0  0  0  0  0  0  0  0
  -34.3480    5.1498  -43.4166 C   0  0  0  0  0  0  0  0  0  0  0  0
  -34.6420    3.7336  -43.9175 C   0  0  0  0  0  0  0  0  0  0  0  0
  -34.9158    7.0201  -41.6662 X   0  0  0  0  0  0  0  0  0  0  0  0
  1  2  1  0  0  0  0
  2  3  2  0  0  0  0
  2  6  1  0  0  0  0
  3  4  1  0  0  0  0
  4  5  1  0  0  0  0
  5  6  2  0  0  0  0
  5  7  1  0  0  0  0
  7  8  1  0  0  0  0
  7 12  1  0  0  0  0
  8  9  1  0  0  0  0
  9 10  1  0  0  0  0
 10 11  1  0  0  0  0
 10 13  1  0  0  0  0
 11 12  1  0  0  0  0
M  END
> <Index>
1999

> <PropertyFieldDistance>
nan

$$$$
595928
BBcorina  12272117083D 1   1.00000     0.00000 
CORINA 4.3.0 0026  30.10.2019
 18 19  0  0  0  0  0  0  0  0999 V2000
  -34.8539    5.9791  -41.1283 C   0  0  0  0  0  0  0  0  0  0  0  0
  -35.1960    4.9315  -42.0996 N   0  0  0  0  0  0  0  0  0  0  0  0
  -36.6055    5.0285  -42.5041 C   0  0  0  0  0  0  0  0  0  0  0  0
  -36.9418    3.8751  -43.4525 C   0  0  0  0  0  0  0  0  0  0  0  0
  -36.0556    3.9330  -44.6234 N   0  0  0  0  0  0  0  0  0  0  0  0
  -36.3977    2.8854  -45.5947 C   0  0  0  0  0  0  0  0  0  0  0  0
  -36.1080    1.5118  -44.9866 C   0  0  0  0  0  0  0  0  0  0  0  0
  -36.4643    0.4207  -45.9983 C   0  0  0  0  0  0  0  0  0  0  0  0
  -36.1862   -0.8982  -45.4144 N   0  0  0  0  0  0  0  0  0  0  0  0
  -34.6461    3.8361  -44.2189 C   0  0  0  0  0  0  0  0  0  0  0  0
  -34.3099    4.9894  -43.2706 C   0  0  0  0  0  0  0  0  0  0  0  0
  -33.7661    3.9156  -45.4397 C   0  0  0  0  0  0  0  0  0  0  0  0
  -32.6507    3.1054  -45.5416 C   0  0  0  0  0  0  0  0  0  0  0  0
  -31.8438    3.1780  -46.6616 C   0  0  0  0  0  0  0  0  0  0  0  0
  -32.1522    4.0609  -47.6797 C   0  0  0  0  0  0  0  0  0  0  0  0
  -33.2673    4.8714  -47.5775 C   0  0  0  0  0  0  0  0  0  0  0  0
  -34.0774    4.7946  -46.4601 C   0  0  0  0  0  0  0  0  0  0  0  0
  -36.5714   -2.1492  -46.5148 X   0  0  0  0  0  0  0  0  0  0  0  0
  1  2  1  0  0  0  0
  2  3  1  0  0  0  0
  2 11  1  0  0  0  0
  3  4  1  0  0  0  0
  4  5  1  0  0  0  0
  5  6  1  0  0  0  0
  5 10  1  0  0  0  0
  6  7  1  0  0  0  0
  7  8  1  0  0  0  0
  8  9  1  0  0  0  0
  9 18  1  0  0  0  0
 10 11  1  0  0  0  0
 10 12  1  0  0  0  0
 12 13  2  0  0  0  0
 12 17  1  0  0  0  0
 13 14  1  0  0  0  0
 14 15  2  0  0  0  0
 15 16  1  0  0  0  0
 16 17  2  0  0  0  0
M  END
> <Index>
2032

> <PropertyFieldDistance>
nan

$$$$
802650
BBcorina  12272117083D 1   1.00000     0.00000 
CORINA 4.3.0 0026  30.10.2019
 14 15  0  0  0  0  0  0  0  0999 V2000
  -34.7107   -1.1251  -46.1363 N   0  0  0  0  0  0  0  0  0  0  0  0
  -34.1150   -0.3468  -45.0428 C   0  0  0  0  0  0  0  0  0  0  0  0
  -35.1463    0.6454  -44.5003 C   0  0  0  0  0  0  0  0  0  0  0  0
  -35.5943    1.5770  -45.6298 C   0  0  0  0  0  0  0  0  0  0  0  0
  -36.6701    2.5319  -45.1086 C   0  0  0  0  0  0  0  0  0  0  0  0
  -36.1060    3.3701  -44.0423 N   0  0  0  0  0  0  0  0  0  0  0  0
  -37.0853    4.3644  -43.5800 C   0  0  0  0  0  0  0  0  0  0  0  0
  -36.4785    5.1746  -42.4314 C   0  0  0  0  0  0  0  0  0  0  0  0
  -35.2601    5.7793  -42.8729 O   0  0  0  0  0  0  0  0  0  0  0  0
  -34.2834    4.8398  -43.3296 C   0  0  0  0  0  0  0  0  0  0  0  0
  -34.8679    4.0261  -44.4873 C   0  0  0  0  0  0  0  0  0  0  0  0
  -36.1662    0.7383  -46.7762 C   0  0  0  0  0  0  0  0  0  0  0  0
  -35.1054   -0.2565  -47.2526 C   0  0  0  0  0  0  0  0  0  0  0  0
  -33.6461   -2.3550  -46.6637 X   0  0  0  0  0  0  0  0  0  0  0  0
  1  2  1  0  0  0  0
  1 13  1  0  0  0  0
  1 14  1  0  0  0  0
  2  3  1  0  0  0  0
  3  4  1  0  0  0  0
  4  5  1  0  0  0  0
  4 12  1  0  0  0  0
  5  6  1  0  0  0  0
  6  7  1  0  0  0  0
  6 11  1  0  0  0  0
  7  8  1  0  0  0  0
  8  9  1  0  0  0  0
  9 10  1  0  0  0  0
 10 11  1  0  0  0  0
 12 13  1  0  0  0  0
M  END
> <Index>
2042

> <PropertyFieldDistance>
nan

$$$$
2255686
BBcorina  12272117083D 1   1.00000     0.00000 
CORINA 4.3.0 0026  30.10.2019
 13 13  0  0  0  0  0  0  0  0999 V2000
  -36.2901    6.7646  -38.7173 C   0  0  0  0  0  0  0  0  0  0  0  0
  -35.8304    7.9240  -39.6037 C   0  0  0  0  0  0  0  0  0  0  0  0
  -35.9665    7.5444  -41.0162 N   0  0  0  0  0  0  0  0  0  0  0  0
  -35.9081    8.7260  -41.8869 C   0  0  0  0  0  0  0  0  0  0  0  0
  -37.1900    9.5450  -41.7219 C   0  0  0  0  0  0  0  0  0  0  0  0
  -34.9459    6.5588  -41.3972 C   0  0  0  0  0  0  0  0  0  0  0  0
  -35.3535    5.8832  -42.7080 C   0  0  0  0  0  0  0  0  0  0  0  0
  -36.6585    5.1099  -42.5008 C   0  0  0  0  0  0  0  0  0  0  0  0
  -37.0290    4.3869  -43.7977 C   0  0  0  0  0  0  0  0  0  0  0  0
  -35.9480    3.4664  -44.1723 N   0  0  0  0  0  0  0  0  0  0  0  0
  -34.6958    4.1916  -44.4226 C   0  0  0  0  0  0  0  0  0  0  0  0
  -34.2559    4.9088  -43.1442 C   0  0  0  0  0  0  0  0  0  0  0  0
  -36.3898    2.5210  -45.5270 X   0  0  0  0  0  0  0  0  0  0  0  0
  1  2  1  0  0  0  0
  2  3  1  0  0  0  0
  3  4  1  0  0  0  0
  3  6  1  0  0  0  0
  4  5  1  0  0  0  0
  6  7  1  0  0  0  0
  7  8  1  0  0  0  0
  7 12  1  0  0  0  0
  8  9  1  0  0  0  0
  9 10  1  0  0  0  0
 10 11  1  0  0  0  0
 10 13  1  0  0  0  0
 11 12  1  0  0  0  0
M  END
> <Index>
2044

> <PropertyFieldDistance>
nan

$$$$
4836848
BBcorina  12272117083D 1   1.00000     0.00000 
CORINA 4.3.0 0026  30.10.2019
 11 11  0  0  0  0  0  0  0  0999 V2000
  -33.1550    7.5838  -40.1058 C   0  0  0  0  0  0  0  0  0  0  0  0
  -33.5960    6.3059  -40.6805 N   0  0  0  0  0  0  0  0  0  0  0  0
  -33.5786    5.2401  -39.6696 C   0  0  0  0  0  0  0  0  0  0  0  0
  -34.9272    6.4334  -41.2882 C   0  0  0  0  0  0  0  0  0  0  0  0
  -35.2463    5.1683  -42.0875 C   0  0  0  0  0  0  0  0  0  0  0  0
  -36.6796    5.2477  -42.6204 C   0  0  0  0  0  0  0  0  0  0  0  0
  -36.9723    4.0084  -43.4693 C   0  0  0  0  0  0  0  0  0  0  0  0
  -36.0194    3.9412  -44.5845 N   0  0  0  0  0  0  0  0  0  0  0  0
  -34.6397    3.8168  -44.0972 C   0  0  0  0  0  0  0  0  0  0  0  0
  -34.2763    5.0495  -43.2663 C   0  0  0  0  0  0  0  0  0  0  0  0
  -36.4111    2.6615  -45.6490 X   0  0  0  0  0  0  0  0  0  0  0  0
  1  2  1  0  0  0  0
  2  3  1  0  0  0  0
  2  4  1  0  0  0  0
  4  5  1  0  0  0  0
  5  6  1  0  0  0  0
  5 10  1  0  0  0  0
  6  7  1  0  0  0  0
  7  8  1  0  0  0  0
  8  9  1  0  0  0  0
  8 11  1  0  0  0  0
  9 10  1  0  0  0  0
M  END
> <Index>
2045

> <PropertyFieldDistance>
nan

$$$$
2016668
BBcorina  12272117083D 1   1.00000     0.00000 
CORINA 4.3.0 0026  30.10.2019
  6  6  0  0  0  0  0  0  0  0999 V2000
  -33.5949    3.2341  -43.0674 C   0  0  0  0  0  0  0  0  0  0  0  0
  -34.9590    2.6890  -43.0573 N   0  0  0  0  0  0  0  0  0  0  0  0
  -35.7429    3.2111  -44.1846 C   0  0  0  0  0  0  0  0  0  0  0  0
  -37.1519    2.6497  -44.3855 C   0  0  0  0  0  0  0  0  0  0  0  0
  -36.9637    4.0732  -43.8571 C   0  0  0  0  0  0  0  0  0  0  0  0
  -34.9358    0.9792  -43.0667 X   0  0  0  0  0  0  0  0  0  0  0  0
  1  2  1  0  0  0  0
  2  3  1  0  0  0  0
  2  6  1  0  0  0  0
  3  4  1  0  0  0  0
  3  5  1  0  0  0  0
  4  5  1  0  0  0  0
M  END
> <Index>
2113

> <PropertyFieldDistance>
nan

$$$$
889232
BBcorina  12272117083D 1   1.00000     0.00000 
CORINA 4.3.0 0026  30.10.2019
 11 11  0  0  0  0  0  0  0  0999 V2000
  -30.5532    5.7841  -43.5675 C   0  0  0  0  0  0  0  0  0  0  0  0
  -31.8272    5.0233  -43.3045 C   0  0  0  0  0  0  0  0  0  0  0  0
  -31.7814    3.8485  -43.0068 O   0  0  0  0  0  0  0  0  0  0  0  0
  -33.0174    5.6484  -43.4000 N   0  0  0  0  0  0  0  0  0  0  0  0
  -34.2559    4.9088  -43.1443 C   0  0  0  0  0  0  0  0  0  0  0  0
  -35.3534    5.8832  -42.7080 C   0  0  0  0  0  0  0  0  0  0  0  0
  -36.6587    5.1099  -42.5007 C   0  0  0  0  0  0  0  0  0  0  0  0
  -37.0290    4.3869  -43.7977 C   0  0  0  0  0  0  0  0  0  0  0  0
  -35.9480    3.4664  -44.1723 N   0  0  0  0  0  0  0  0  0  0  0  0
  -34.6958    4.1916  -44.4226 C   0  0  0  0  0  0  0  0  0  0  0  0
  -36.3899    2.5210  -45.5270 X   0  0  0  0  0  0  0  0  0  0  0  0
  1  2  1  0  0  0  0
  2  3  2  0  0  0  0
  2  4  1  0  0  0  0
  4  5  1  0  0  0  0
  5  6  1  0  0  0  0
  5 10  1  0  0  0  0
  6  7  1  0  0  0  0
  7  8  1  0  0  0  0
  8  9  1  0  0  0  0
  9 10  1  0  0  0  0
  9 11  1  0  0  0  0
M  END
> <Index>
2130

> <PropertyFieldDistance>
nan

$$$$
773244
BBcorina  12272117083D 1   1.00000     0.00000 
CORINA 4.3.0 0026  30.10.2019
 13 13  0  0  0  0  0  0  0  0999 V2000
  -34.6225    6.6348  -41.6926 C   0  0  0  0  0  0  0  0  0  0  0  0
  -35.2318    5.8729  -42.8712 C   0  0  0  0  0  0  0  0  0  0  0  0
  -36.5217    5.1812  -42.4214 C   0  0  0  0  0  0  0  0  0  0  0  0
  -37.0947    4.3727  -43.5877 C   0  0  0  0  0  0  0  0  0  0  0  0
  -36.1096    3.3749  -44.0239 N   0  0  0  0  0  0  0  0  0  0  0  0
  -36.6762    2.4890  -45.0496 C   0  0  0  0  0  0  0  0  0  0  0  0
  -35.5626    1.6327  -45.6558 C   0  0  0  0  0  0  0  0  0  0  0  0
  -36.1529    0.7102  -46.7241 C   0  0  0  0  0  0  0  0  0  0  0  0
  -35.0391   -0.1461  -47.3304 C   0  0  0  0  0  0  0  0  0  0  0  0
  -35.6059   -1.0319  -48.3561 N   0  0  0  0  0  0  0  0  0  0  0  0
  -34.8799    4.0177  -44.5047 C   0  0  0  0  0  0  0  0  0  0  0  0
  -34.2408    4.8155  -43.3659 C   0  0  0  0  0  0  0  0  0  0  0  0
  -34.3920   -2.0088  -49.0607 X   0  0  0  0  0  0  0  0  0  0  0  0
  1  2  1  0  0  0  0
  2  3  1  0  0  0  0
  2 12  1  0  0  0  0
  3  4  1  0  0  0  0
  4  5  1  0  0  0  0
  5  6  1  0  0  0  0
  5 11  1  0  0  0  0
  6  7  1  0  0  0  0
  7  8  1  0  0  0  0
  8  9  1  0  0  0  0
  9 10  1  0  0  0  0
 10 13  1  0  0  0  0
 11 12  1  0  0  0  0
M  END
> <Index>
2134

> <PropertyFieldDistance>
nan

$$$$
782910
BBcorina  12272117083D 1   1.00000     0.00000 
CORINA 4.3.0 0026  30.10.2019
 12 12  0  0  0  0  0  0  0  0999 V2000
  -35.6249   -0.9931  -48.4103 N   0  0  0  0  0  0  0  0  0  0  0  0
  -35.0560   -0.1298  -47.3667 C   0  0  0  0  0  0  0  0  0  0  0  0
  -36.1640    0.7321  -46.7578 C   0  0  0  0  0  0  0  0  0  0  0  0
  -35.5716    1.6312  -45.6708 C   0  0  0  0  0  0  0  0  0  0  0  0
  -36.6795    2.4930  -45.0620 C   0  0  0  0  0  0  0  0  0  0  0  0
  -36.1108    3.3562  -44.0184 N   0  0  0  0  0  0  0  0  0  0  0  0
  -37.0880    4.3615  -43.5758 C   0  0  0  0  0  0  0  0  0  0  0  0
  -36.4762    5.1987  -42.4494 C   0  0  0  0  0  0  0  0  0  0  0  0
  -35.2595    5.7925  -42.9104 O   0  0  0  0  0  0  0  0  0  0  0  0
  -34.2849    4.8421  -43.3486 C   0  0  0  0  0  0  0  0  0  0  0  0
  -34.8745    4.0012  -44.4840 C   0  0  0  0  0  0  0  0  0  0  0  0
  -34.4174   -1.9752  -49.1185 X   0  0  0  0  0  0  0  0  0  0  0  0
  1  2  1  0  0  0  0
  1 12  1  0  0  0  0
  2  3  1  0  0  0  0
  3  4  1  0  0  0  0
  4  5  1  0  0  0  0
  5  6  1  0  0  0  0
  6  7  1  0  0  0  0
  6 11  1  0  0  0  0
  7  8  1  0  0  0  0
  8  9  1  0  0  0  0
  9 10  1  0  0  0  0
 10 11  1  0  0  0  0
M  END
> <Index>
2135

> <PropertyFieldDistance>
nan

$$$$
768798
BBcorina  12272117083D 1   1.00000     0.00000 
CORINA 4.3.0 0026  30.10.2019
 13 13  0  0  0  0  0  0  0  0999 V2000
  -38.3732    3.6636  -43.1369 C   0  0  0  0  0  0  0  0  0  0  0  0
  -37.0947    4.3727  -43.5877 C   0  0  0  0  0  0  0  0  0  0  0  0
  -36.5217    5.1812  -42.4215 C   0  0  0  0  0  0  0  0  0  0  0  0
  -35.2317    5.8728  -42.8712 C   0  0  0  0  0  0  0  0  0  0  0  0
  -34.2408    4.8156  -43.3658 C   0  0  0  0  0  0  0  0  0  0  0  0
  -34.8799    4.0177  -44.5048 C   0  0  0  0  0  0  0  0  0  0  0  0
  -36.1096    3.3749  -44.0239 N   0  0  0  0  0  0  0  0  0  0  0  0
  -36.6762    2.4890  -45.0496 C   0  0  0  0  0  0  0  0  0  0  0  0
  -35.5626    1.6328  -45.6558 C   0  0  0  0  0  0  0  0  0  0  0  0
  -36.1529    0.7102  -46.7241 C   0  0  0  0  0  0  0  0  0  0  0  0
  -35.0392   -0.1462  -47.3302 C   0  0  0  0  0  0  0  0  0  0  0  0
  -35.6060   -1.0320  -48.3560 N   0  0  0  0  0  0  0  0  0  0  0  0
  -34.3921   -2.0088  -49.0607 X   0  0  0  0  0  0  0  0  0  0  0  0
  1  2  1  0  0  0  0
  2  3  1  0  0  0  0
  2  7  1  0  0  0  0
  3  4  1  0  0  0  0
  4  5  1  0  0  0  0
  5  6  1  0  0  0  0
  6  7  1  0  0  0  0
  7  8  1  0  0  0  0
  8  9  1  0  0  0  0
  9 10  1  0  0  0  0
 10 11  1  0  0  0  0
 11 12  1  0  0  0  0
 12 13  1  0  0  0  0
M  END
> <Index>
2136

> <PropertyFieldDistance>
nan

$$$$
664474
BBcorina  12272117083D 1   1.00000     0.00000 
CORINA 4.3.0 0026  30.10.2019
 13 13  0  0  0  0  0  0  0  0999 V2000
  -35.0829    6.1078  -41.0928 C   0  0  0  0  0  0  0  0  0  0  0  0
  -35.3556    5.4973  -42.4007 N   0  0  0  0  0  0  0  0  0  0  0  0
  -36.5414    4.6313  -42.3408 C   0  0  0  0  0  0  0  0  0  0  0  0
  -36.8381    4.0789  -43.7370 C   0  0  0  0  0  0  0  0  0  0  0  0
  -35.6686    3.3337  -44.2244 N   0  0  0  0  0  0  0  0  0  0  0  0
  -35.9412    2.7231  -45.5324 C   0  0  0  0  0  0  0  0  0  0  0  0
  -37.0171    1.6462  -45.3782 C   0  0  0  0  0  0  0  0  0  0  0  0
  -37.3011    1.0103  -46.7405 C   0  0  0  0  0  0  0  0  0  0  0  0
  -38.3769   -0.0665  -46.5864 C   0  0  0  0  0  0  0  0  0  0  0  0
  -38.6496   -0.6771  -47.8944 N   0  0  0  0  0  0  0  0  0  0  0  0
  -34.4828    4.1997  -44.2843 C   0  0  0  0  0  0  0  0  0  0  0  0
  -34.1867    4.7519  -42.8880 C   0  0  0  0  0  0  0  0  0  0  0  0
  -39.8492   -1.8889  -47.7669 X   0  0  0  0  0  0  0  0  0  0  0  0
  1  2  1  0  0  0  0
  2  3  1  0  0  0  0
  2 12  1  0  0  0  0
  3  4  1  0  0  0  0
  4  5  1  0  0  0  0
  5  6  1  0  0  0  0
  5 11  1  0  0  0  0
  6  7  1  0  0  0  0
  7  8  1  0  0  0  0
  8  9  1  0  0  0  0
  9 10  1  0  0  0  0
 10 13  1  0  0  0  0
 11 12  1  0  0  0  0
M  END
> <Index>
2137

> <PropertyFieldDistance>
nan

$$$$
4836868
BBcorina  12272117083D 1   1.00000     0.00000 
CORINA 4.3.0 0026  30.10.2019
 14 14  0  0  0  0  0  0  0  0999 V2000
  -35.7215    1.5891  -45.7499 C   0  0  0  0  0  0  0  0  0  0  0  0
  -36.6274    2.7488  -45.3314 C   0  0  0  0  0  0  0  0  0  0  0  0
  -36.1119    3.3511  -44.0947 N   0  0  0  0  0  0  0  0  0  0  0  0
  -37.0762    4.3073  -43.5330 C   0  0  0  0  0  0  0  0  0  0  0  0
  -36.5378    4.8515  -42.2076 C   0  0  0  0  0  0  0  0  0  0  0  0
  -35.2363    5.4941  -42.4374 N   0  0  0  0  0  0  0  0  0  0  0  0
  -34.7209    6.0964  -41.2008 C   0  0  0  0  0  0  0  0  0  0  0  0
  -33.2696    6.5325  -41.4122 C   0  0  0  0  0  0  0  0  0  0  0  0
  -32.7328    7.1598  -40.1241 C   0  0  0  0  0  0  0  0  0  0  0  0
  -31.2815    7.5958  -40.3356 C   0  0  0  0  0  0  0  0  0  0  0  0
  -30.7661    8.1982  -39.0988 N   0  0  0  0  0  0  0  0  0  0  0  0
  -34.2721    4.5379  -42.9992 C   0  0  0  0  0  0  0  0  0  0  0  0
  -34.8104    3.9937  -44.3245 C   0  0  0  0  0  0  0  0  0  0  0  0
  -29.1430    8.7006  -39.2921 X   0  0  0  0  0  0  0  0  0  0  0  0
  1  2  1  0  0  0  0
  2  3  1  0  0  0  0
  3  4  1  0  0  0  0
  3 13  1  0  0  0  0
  4  5  1  0  0  0  0
  5  6  1  0  0  0  0
  6  7  1  0  0  0  0
  6 12  1  0  0  0  0
  7  8  1  0  0  0  0
  8  9  1  0  0  0  0
  9 10  1  0  0  0  0
 10 11  1  0  0  0  0
 11 14  1  0  0  0  0
 12 13  1  0  0  0  0
M  END
> <Index>
2138

> <PropertyFieldDistance>
nan

$$$$
803682
BBcorina  12272117083D 1   1.00000     0.00000 
CORINA 4.3.0 0026  30.10.2019
 13 13  0  0  0  0  0  0  0  0999 V2000
  -28.2682    5.8975  -43.7195 C   0  0  0  0  0  0  0  0  0  0  0  0
  -29.4439    4.9659  -43.4182 C   0  0  0  0  0  0  0  0  0  0  0  0
  -30.6890    5.7031  -43.5395 O   0  0  0  0  0  0  0  0  0  0  0  0
  -31.8272    5.0233  -43.3045 C   0  0  0  0  0  0  0  0  0  0  0  0
  -31.7813    3.8463  -43.0062 O   0  0  0  0  0  0  0  0  0  0  0  0
  -33.0174    5.6484  -43.4000 N   0  0  0  0  0  0  0  0  0  0  0  0
  -34.2559    4.9088  -43.1443 C   0  0  0  0  0  0  0  0  0  0  0  0
  -35.3534    5.8832  -42.7080 C   0  0  0  0  0  0  0  0  0  0  0  0
  -36.6587    5.1099  -42.5007 C   0  0  0  0  0  0  0  0  0  0  0  0
  -37.0290    4.3869  -43.7977 C   0  0  0  0  0  0  0  0  0  0  0  0
  -35.9480    3.4664  -44.1723 N   0  0  0  0  0  0  0  0  0  0  0  0
  -34.6958    4.1916  -44.4226 C   0  0  0  0  0  0  0  0  0  0  0  0
  -36.3899    2.5210  -45.5270 X   0  0  0  0  0  0  0  0  0  0  0  0
  1  2  1  0  0  0  0
  2  3  1  0  0  0  0
  3  4  1  0  0  0  0
  4  5  2  0  0  0  0
  4  6  1  0  0  0  0
  6  7  1  0  0  0  0
  7  8  1  0  0  0  0
  7 12  1  0  0  0  0
  8  9  1  0  0  0  0
  9 10  1  0  0  0  0
 10 11  1  0  0  0  0
 11 12  1  0  0  0  0
 11 13  1  0  0  0  0
M  END
> <Index>
2140

> <PropertyFieldDistance>
nan

$$$$
774616
BBcorina  12272117083D 1   1.00000     0.00000 
CORINA 4.3.0 0026  30.10.2019
 14 14  0  0  0  0  0  0  0  0999 V2000
  -33.8855    3.8709  -42.2159 C   0  0  0  0  0  0  0  0  0  0  0  0
  -34.2408    4.8156  -43.3659 C   0  0  0  0  0  0  0  0  0  0  0  0
  -35.2318    5.8728  -42.8712 C   0  0  0  0  0  0  0  0  0  0  0  0
  -36.5217    5.1812  -42.4214 C   0  0  0  0  0  0  0  0  0  0  0  0
  -37.5403    6.2346  -41.9811 C   0  0  0  0  0  0  0  0  0  0  0  0
  -37.0947    4.3727  -43.5877 C   0  0  0  0  0  0  0  0  0  0  0  0
  -36.1095    3.3749  -44.0239 N   0  0  0  0  0  0  0  0  0  0  0  0
  -36.6762    2.4890  -45.0496 C   0  0  0  0  0  0  0  0  0  0  0  0
  -35.5626    1.6328  -45.6557 C   0  0  0  0  0  0  0  0  0  0  0  0
  -36.1528    0.7101  -46.7241 C   0  0  0  0  0  0  0  0  0  0  0  0
  -35.0392   -0.1462  -47.3303 C   0  0  0  0  0  0  0  0  0  0  0  0
  -35.6058   -1.0320  -48.3559 N   0  0  0  0  0  0  0  0  0  0  0  0
  -34.8799    4.0176  -44.5047 C   0  0  0  0  0  0  0  0  0  0  0  0
  -34.3920   -2.0089  -49.0606 X   0  0  0  0  0  0  0  0  0  0  0  0
  1  2  1  0  0  0  0
  2  3  1  0  0  0  0
  2 13  1  0  0  0  0
  3  4  1  0  0  0  0
  4  5  1  0  0  0  0
  4  6  1  0  0  0  0
  6  7  1  0  0  0  0
  7  8  1  0  0  0  0
  7 13  1  0  0  0  0
  8  9  1  0  0  0  0
  9 10  1  0  0  0  0
 10 11  1  0  0  0  0
 11 12  1  0  0  0  0
 12 14  1  0  0  0  0
M  END
> <Index>
2142

> <PropertyFieldDistance>
nan

$$$$
1028106
BBcorina  12272117083D 1   1.00000     0.00000 
CORINA 4.3.0 0026  30.10.2019
 15 15  0  0  0  0  0  0  0  0999 V2000
  -35.6080    0.0575  -43.4821 C   0  0  0  0  0  0  0  0  0  0  0  0
  -34.7088    0.8820  -44.4054 C   0  0  0  0  0  0  0  0  0  0  0  0
  -35.5618    1.5464  -45.4879 C   0  0  0  0  0  0  0  0  0  0  0  0
  -36.2866    0.4700  -46.2984 C   0  0  0  0  0  0  0  0  0  0  0  0
  -35.2640   -0.3466  -47.0910 C   0  0  0  0  0  0  0  0  0  0  0  0
  -36.5747    2.4559  -44.8416 C   0  0  0  0  0  0  0  0  0  0  0  0
  -37.7267    2.0948  -44.7248 O   0  0  0  0  0  0  0  0  0  0  0  0
  -36.2006    3.6705  -44.3931 N   0  0  0  0  0  0  0  0  0  0  0  0
  -37.1518    4.5284  -43.6732 C   0  0  0  0  0  0  0  0  0  0  0  0
  -36.5283    4.9427  -42.3367 C   0  0  0  0  0  0  0  0  0  0  0  0
  -35.1661    5.5917  -42.5933 C   0  0  0  0  0  0  0  0  0  0  0  0
  -34.2362    4.5804  -43.2672 C   0  0  0  0  0  0  0  0  0  0  0  0
  -34.8321    4.1595  -44.6094 C   0  0  0  0  0  0  0  0  0  0  0  0
  -34.5799    6.0201  -41.3163 N   0  0  0  0  0  0  0  0  0  0  0  0
  -34.2630    4.6771  -40.3063 X   0  0  0  0  0  0  0  0  0  0  0  0
  1  2  1  0  0  0  0
  2  3  1  0  0  0  0
  3  4  1  0  0  0  0
  3  6  1  0  0  0  0
  4  5  1  0  0  0  0
  6  7  2  0  0  0  0
  6  8  1  0  0  0  0
  8  9  1  0  0  0  0
  8 13  1  0  0  0  0
  9 10  1  0  0  0  0
 10 11  1  0  0  0  0
 11 12  1  0  0  0  0
 11 14  1  0  0  0  0
 12 13  1  0  0  0  0
 14 15  1  0  0  0  0
M  END
> <Index>
2197

> <PropertyFieldDistance>
nan

$$$$
575710
BBcorina  12272117083D 1   1.00000     0.00000 
CORINA 4.3.0 0026  30.10.2019
 16 17  0  0  0  0  0  0  0  0999 V2000
  -36.1245    1.1460  -47.0715 N   0  0  0  0  0  0  0  0  0  0  0  0
  -35.5906    1.7979  -45.8682 C   0  0  0  0  0  0  0  0  0  0  0  0
  -36.6858    2.6469  -45.2197 C   0  0  0  0  0  0  0  0  0  0  0  0
  -36.1519    3.2989  -44.0164 N   0  0  0  0  0  0  0  0  0  0  0  0
  -37.0926    4.3029  -43.5001 C   0  0  0  0  0  0  0  0  0  0  0  0
  -36.5367    4.9007  -42.2054 C   0  0  0  0  0  0  0  0  0  0  0  0
  -35.2225    5.5022  -42.4714 N   0  0  0  0  0  0  0  0  0  0  0  0
  -34.2818    4.4982  -42.9878 C   0  0  0  0  0  0  0  0  0  0  0  0
  -34.8377    3.9003  -44.2824 C   0  0  0  0  0  0  0  0  0  0  0  0
  -34.7148    6.1221  -41.3273 C   0  0  0  0  0  0  0  0  0  0  0  0
  -33.4782    6.7533  -41.3682 C   0  0  0  0  0  0  0  0  0  0  0  0
  -32.9794    7.3655  -40.2352 C   0  0  0  0  0  0  0  0  0  0  0  0
  -33.7097    7.3509  -39.0610 C   0  0  0  0  0  0  0  0  0  0  0  0
  -34.9412    6.7235  -39.0169 C   0  0  0  0  0  0  0  0  0  0  0  0
  -35.4482    6.1138  -40.1476 C   0  0  0  0  0  0  0  0  0  0  0  0
  -34.9300    0.1849  -47.8289 X   0  0  0  0  0  0  0  0  0  0  0  0
  1  2  1  0  0  0  0
  1 16  1  0  0  0  0
  2  3  1  0  0  0  0
  3  4  1  0  0  0  0
  4  5  1  0  0  0  0
  4  9  1  0  0  0  0
  5  6  1  0  0  0  0
  6  7  1  0  0  0  0
  7  8  1  0  0  0  0
  7 10  1  0  0  0  0
  8  9  1  0  0  0  0
 10 11  2  0  0  0  0
 10 15  1  0  0  0  0
 11 12  1  0  0  0  0
 12 13  2  0  0  0  0
 13 14  1  0  0  0  0
 14 15  2  0  0  0  0
M  END
> <Index>
2207

> <PropertyFieldDistance>
nan

$$$$
635494
BBcorina  12272117083D 1   1.00000     0.00000 
CORINA 4.3.0 0026  30.10.2019
 17 18  0  0  0  0  0  0  0  0999 V2000
  -34.8539    5.9791  -41.1283 C   0  0  0  0  0  0  0  0  0  0  0  0
  -35.1960    4.9315  -42.0996 N   0  0  0  0  0  0  0  0  0  0  0  0
  -36.6055    5.0285  -42.5041 C   0  0  0  0  0  0  0  0  0  0  0  0
  -36.9418    3.8751  -43.4525 C   0  0  0  0  0  0  0  0  0  0  0  0
  -36.0556    3.9330  -44.6234 N   0  0  0  0  0  0  0  0  0  0  0  0
  -36.3977    2.8854  -45.5947 C   0  0  0  0  0  0  0  0  0  0  0  0
  -36.1080    1.5118  -44.9866 C   0  0  0  0  0  0  0  0  0  0  0  0
  -36.4502    0.4642  -45.9580 N   0  0  0  0  0  0  0  0  0  0  0  0
  -34.6461    3.8361  -44.2189 C   0  0  0  0  0  0  0  0  0  0  0  0
  -34.3099    4.9894  -43.2706 C   0  0  0  0  0  0  0  0  0  0  0  0
  -33.7661    3.9156  -45.4397 C   0  0  0  0  0  0  0  0  0  0  0  0
  -32.6507    3.1054  -45.5416 C   0  0  0  0  0  0  0  0  0  0  0  0
  -31.8438    3.1780  -46.6616 C   0  0  0  0  0  0  0  0  0  0  0  0
  -32.1522    4.0609  -47.6797 C   0  0  0  0  0  0  0  0  0  0  0  0
  -33.2673    4.8714  -47.5775 C   0  0  0  0  0  0  0  0  0  0  0  0
  -34.0774    4.7946  -46.4601 C   0  0  0  0  0  0  0  0  0  0  0  0
  -36.1409   -1.0907  -45.3169 X   0  0  0  0  0  0  0  0  0  0  0  0
  1  2  1  0  0  0  0
  2  3  1  0  0  0  0
  2 10  1  0  0  0  0
  3  4  1  0  0  0  0
  4  5  1  0  0  0  0
  5  6  1  0  0  0  0
  5  9  1  0  0  0  0
  6  7  1  0  0  0  0
  7  8  1  0  0  0  0
  8 17  1  0  0  0  0
  9 10  1  0  0  0  0
  9 11  1  0  0  0  0
 11 12  2  0  0  0  0
 11 16  1  0  0  0  0
 12 13  1  0  0  0  0
 13 14  2  0  0  0  0
 14 15  1  0  0  0  0
 15 16  2  0  0  0  0
M  END
> <Index>
2211

> <PropertyFieldDistance>
nan

$$$$
1155236
BBcorina  12272117083D 1   1.00000     0.00000 
CORINA 4.3.0 0026  30.10.2019
 10 10  0  0  0  0  0  0  0  0999 V2000
  -36.3567    2.2490  -44.7130 C   0  0  0  0  0  0  0  0  0  0  0  0
  -35.9937    3.5652  -44.1821 N   0  0  0  0  0  0  0  0  0  0  0  0
  -36.9724    4.4564  -43.8672 C   0  0  0  0  0  0  0  0  0  0  0  0
  -36.6578    5.6845  -43.3784 C   0  0  0  0  0  0  0  0  0  0  0  0
  -37.6753    6.5974  -43.0621 N   0  0  0  0  0  0  0  0  0  0  0  0
  -35.3101    6.0362  -43.1850 C   0  0  0  0  0  0  0  0  0  0  0  0
  -34.3349    5.1356  -43.4977 C   0  0  0  0  0  0  0  0  0  0  0  0
  -34.6958    3.8767  -44.0059 C   0  0  0  0  0  0  0  0  0  0  0  0
  -33.8302    3.0632  -44.2890 O   0  0  0  0  0  0  0  0  0  0  0  0
  -39.3135    6.1674  -43.2983 X   0  0  0  0  0  0  0  0  0  0  0  0
  1  2  1  0  0  0  0
  2  3  1  0  0  0  0
  2  8  1  0  0  0  0
  3  4  2  0  0  0  0
  4  5  1  0  0  0  0
  4  6  1  0  0  0  0
  5 10  1  0  0  0  0
  6  7  2  0  0  0  0
  7  8  1  0  0  0  0
  8  9  2  0  0  0  0
M  END
> <Index>
2217

> <PropertyFieldDistance>
nan

$$$$
608878
BBcorina  12272117083D 1   1.00000     0.00000 
CORINA 4.3.0 0026  30.10.2019
 13 13  0  0  0  0  0  0  0  0999 V2000
  -35.3137    0.4567  -47.9284 C   0  0  0  0  0  0  0  0  0  0  0  0
  -36.0051    0.7526  -46.6712 N   0  0  0  0  0  0  0  0  0  0  0  0
  -35.8041    1.9335  -46.0534 C   0  0  0  0  0  0  0  0  0  0  0  0
  -35.0508    2.7511  -46.5382 O   0  0  0  0  0  0  0  0  0  0  0  0
  -36.5153    2.2379  -44.7601 C   0  0  0  0  0  0  0  0  0  0  0  0
  -36.1304    3.5765  -44.2930 N   0  0  0  0  0  0  0  0  0  0  0  0
  -36.9747    4.0050  -43.1705 C   0  0  0  0  0  0  0  0  0  0  0  0
  -36.6444    5.4542  -42.8061 C   0  0  0  0  0  0  0  0  0  0  0  0
  -35.1650    5.5549  -42.4241 C   0  0  0  0  0  0  0  0  0  0  0  0
  -34.3093    5.0572  -43.5922 C   0  0  0  0  0  0  0  0  0  0  0  0
  -34.7073    3.6195  -43.9337 C   0  0  0  0  0  0  0  0  0  0  0  0
  -34.8281    6.9540  -42.1298 N   0  0  0  0  0  0  0  0  0  0  0  0
  -35.2135    7.9683  -43.4514 X   0  0  0  0  0  0  0  0  0  0  0  0
  1  2  1  0  0  0  0
  2  3  1  0  0  0  0
  3  4  2  0  0  0  0
  3  5  1  0  0  0  0
  5  6  1  0  0  0  0
  6  7  1  0  0  0  0
  6 11  1  0  0  0  0
  7  8  1  0  0  0  0
  8  9  1  0  0  0  0
  9 10  1  0  0  0  0
  9 12  1  0  0  0  0
 10 11  1  0  0  0  0
 12 13  1  0  0  0  0
M  END
> <Index>
2221

> <PropertyFieldDistance>
nan

$$$$
675874
BBcorina  12272117083D 1   1.00000     0.00000 
CORINA 4.3.0 0026  30.10.2019
 15 15  0  0  0  0  0  0  0  0999 V2000
  -39.6186   -2.1427  -47.0323 C   0  0  0  0  0  0  0  0  0  0  0  0
  -38.5690   -1.0561  -47.2741 C   0  0  0  0  0  0  0  0  0  0  0  0
  -38.2953   -0.3111  -45.9660 C   0  0  0  0  0  0  0  0  0  0  0  0
  -37.2902    0.7293  -46.1976 N   0  0  0  0  0  0  0  0  0  0  0  0
  -36.8896    1.5175  -45.1805 C   0  0  0  0  0  0  0  0  0  0  0  0
  -37.3612    1.3655  -44.0734 O   0  0  0  0  0  0  0  0  0  0  0  0
  -35.8603    2.5918  -45.4200 C   0  0  0  0  0  0  0  0  0  0  0  0
  -35.7111    3.4064  -44.2068 N   0  0  0  0  0  0  0  0  0  0  0  0
  -36.9377    4.1638  -43.9273 C   0  0  0  0  0  0  0  0  0  0  0  0
  -36.7992    4.8843  -42.5843 C   0  0  0  0  0  0  0  0  0  0  0  0
  -35.5952    5.8288  -42.6391 C   0  0  0  0  0  0  0  0  0  0  0  0
  -34.3388    5.0222  -42.9793 C   0  0  0  0  0  0  0  0  0  0  0  0
  -34.5488    4.2977  -44.3109 C   0  0  0  0  0  0  0  0  0  0  0  0
  -35.4230    6.4808  -41.3341 N   0  0  0  0  0  0  0  0  0  0  0  0
  -35.0488    5.3351  -40.1211 X   0  0  0  0  0  0  0  0  0  0  0  0
  1  2  1  0  0  0  0
  2  3  1  0  0  0  0
  3  4  1  0  0  0  0
  4  5  1  0  0  0  0
  5  6  2  0  0  0  0
  5  7  1  0  0  0  0
  7  8  1  0  0  0  0
  8  9  1  0  0  0  0
  8 13  1  0  0  0  0
  9 10  1  0  0  0  0
 10 11  1  0  0  0  0
 11 12  1  0  0  0  0
 11 14  1  0  0  0  0
 12 13  1  0  0  0  0
 14 15  1  0  0  0  0
M  END
> <Index>
2223

> <PropertyFieldDistance>
nan

$$$$
1317108
BBcorina  12272117083D 1   1.00000     0.00000 
CORINA 4.3.0 0026  30.10.2019
 14 15  0  0  0  0  0  0  0  0999 V2000
  -35.2497    5.7277  -42.7077 N   0  0  0  0  0  0  0  0  0  0  0  0
  -36.5085    5.0811  -42.3116 C   0  0  0  0  0  0  0  0  0  0  0  0
  -37.0937    4.3323  -43.5113 C   0  0  0  0  0  0  0  0  0  0  0  0
  -36.1213    3.3384  -43.9870 N   0  0  0  0  0  0  0  0  0  0  0  0
  -36.6764    2.5459  -45.0923 C   0  0  0  0  0  0  0  0  0  0  0  0
  -35.5665    1.7022  -45.7226 C   0  0  0  0  0  0  0  0  0  0  0  0
  -36.1360    0.8892  -46.8566 C   0  0  0  0  0  0  0  0  0  0  0  0
  -36.2088    1.2874  -48.1275 C   0  0  0  0  0  0  0  0  0  0  0  0
  -36.7700    0.3670  -48.9958 C   0  0  0  0  0  0  0  0  0  0  0  0
  -37.1613   -0.7750  -48.4285 C   0  0  0  0  0  0  0  0  0  0  0  0
  -36.8133   -0.7270  -46.7051 S   0  0  0  0  0  0  0  0  0  0  0  0
  -34.8625    3.9851  -44.3830 C   0  0  0  0  0  0  0  0  0  0  0  0
  -34.2773    4.7339  -43.1833 C   0  0  0  0  0  0  0  0  0  0  0  0
  -34.6035    6.6503  -41.4210 X   0  0  0  0  0  0  0  0  0  0  0  0
  1  2  1  0  0  0  0
  1 13  1  0  0  0  0
  1 14  1  0  0  0  0
  2  3  1  0  0  0  0
  3  4  1  0  0  0  0
  4  5  1  0  0  0  0
  4 12  1  0  0  0  0
  5  6  1  0  0  0  0
  6  7  1  0  0  0  0
  7  8  2  0  0  0  0
  7 11  1  0  0  0  0
  8  9  1  0  0  0  0
  9 10  2  0  0  0  0
 10 11  1  0  0  0  0
 12 13  1  0  0  0  0
M  END
> <Index>
2231

> <PropertyFieldDistance>
nan

$$$$
2563270
BBcorina  12272117083D 1   1.00000     0.00000 
CORINA 4.3.0 0026  30.10.2019
 16 16  0  0  0  0  0  0  0  0999 V2000
  -36.6310   -0.0377  -46.2652 C   0  0  0  0  0  0  0  0  0  0  0  0
  -35.5491    0.0554  -45.1874 C   0  0  0  0  0  0  0  0  0  0  0  0
  -34.2903   -0.6720  -45.6641 C   0  0  0  0  0  0  0  0  0  0  0  0
  -36.0561   -0.5941  -43.8982 C   0  0  0  0  0  0  0  0  0  0  0  0
  -35.2357    1.4507  -44.9355 O   0  0  0  0  0  0  0  0  0  0  0  0
  -36.2421    2.2355  -44.5066 C   0  0  0  0  0  0  0  0  0  0  0  0
  -37.3520    1.7672  -44.3470 O   0  0  0  0  0  0  0  0  0  0  0  0
  -36.0185    3.5404  -44.2541 N   0  0  0  0  0  0  0  0  0  0  0  0
  -37.1066    4.4093  -43.7856 C   0  0  0  0  0  0  0  0  0  0  0  0
  -36.6631    5.1084  -42.4966 C   0  0  0  0  0  0  0  0  0  0  0  0
  -35.3377    5.8368  -42.7499 C   0  0  0  0  0  0  0  0  0  0  0  0
  -34.9057    6.5648  -41.4753 C   0  0  0  0  0  0  0  0  0  0  0  0
  -35.8785    7.6194  -41.1601 N   0  0  0  0  0  0  0  0  0  0  0  0
  -34.2623    4.8232  -43.1475 C   0  0  0  0  0  0  0  0  0  0  0  0
  -34.6820    4.1210  -44.4427 C   0  0  0  0  0  0  0  0  0  0  0  0
  -35.4324    8.4596  -39.7392 X   0  0  0  0  0  0  0  0  0  0  0  0
  1  2  1  0  0  0  0
  2  3  1  0  0  0  0
  2  4  1  0  0  0  0
  2  5  1  0  0  0  0
  5  6  1  0  0  0  0
  6  7  2  0  0  0  0
  6  8  1  0  0  0  0
  8  9  1  0  0  0  0
  8 15  1  0  0  0  0
  9 10  1  0  0  0  0
 10 11  1  0  0  0  0
 11 12  1  0  0  0  0
 11 14  1  0  0  0  0
 12 13  1  0  0  0  0
 13 16  1  0  0  0  0
 14 15  1  0  0  0  0
M  END
> <Index>
2238

> <PropertyFieldDistance>
nan

$$$$
14947342
BBcorina  12272117083D 1   1.00000     0.00000 
CORINA 4.3.0 0026  30.10.2019
 10 10  0  0  0  0  0  0  0  0999 V2000
  -31.8353    4.6971  -43.7262 C   0  0  0  0  0  0  0  0  0  0  0  0
  -32.9629    5.6821  -43.4116 C   0  0  0  0  0  0  0  0  0  0  0  0
  -34.2559    4.9088  -43.1443 C   0  0  0  0  0  0  0  0  0  0  0  0
  -35.3534    5.8831  -42.7079 C   0  0  0  0  0  0  0  0  0  0  0  0
  -36.6586    5.1099  -42.5007 C   0  0  0  0  0  0  0  0  0  0  0  0
  -37.0290    4.3869  -43.7977 C   0  0  0  0  0  0  0  0  0  0  0  0
  -38.3224    3.5965  -43.5893 C   0  0  0  0  0  0  0  0  0  0  0  0
  -35.9479    3.4664  -44.1723 N   0  0  0  0  0  0  0  0  0  0  0  0
  -34.6959    4.1916  -44.4226 C   0  0  0  0  0  0  0  0  0  0  0  0
  -36.3900    2.5211  -45.5270 X   0  0  0  0  0  0  0  0  0  0  0  0
  1  2  1  0  0  0  0
  2  3  1  0  0  0  0
  3  4  1  0  0  0  0
  3  9  1  0  0  0  0
  4  5  1  0  0  0  0
  5  6  1  0  0  0  0
  6  7  1  0  0  0  0
  6  8  1  0  0  0  0
  8  9  1  0  0  0  0
  8 10  1  0  0  0  0
M  END
> <Index>
2240

> <PropertyFieldDistance>
nan

$$$$
2496970
BBcorina  12272117083D 1   1.00000     0.00000 
CORINA 4.3.0 0026  30.10.2019
  9  9  0  0  0  0  0  0  0  0999 V2000
  -36.0173    3.5927  -44.4913 N   0  0  0  0  0  0  0  0  0  0  0  0
  -36.3933    2.1751  -44.5753 C   0  0  0  0  0  0  0  0  0  0  0  0
  -36.1059    1.6538  -45.9847 C   0  0  0  0  0  0  0  0  0  0  0  0
  -36.3796    0.1477  -46.0397 C   0  0  0  0  0  0  0  0  0  0  0  0
  -36.1654   -0.3500  -47.4715 C   0  0  0  0  0  0  0  0  0  0  0  0
  -37.0211    0.3729  -48.3587 O   0  0  0  0  0  0  0  0  0  0  0  0
  -36.7788    1.7810  -48.3849 C   0  0  0  0  0  0  0  0  0  0  0  0
  -37.0177    2.3643  -46.9897 C   0  0  0  0  0  0  0  0  0  0  0  0
  -36.3230    4.2162  -42.9286 X   0  0  0  0  0  0  0  0  0  0  0  0
  1  2  1  0  0  0  0
  1  9  1  0  0  0  0
  2  3  1  0  0  0  0
  3  4  1  0  0  0  0
  3  8  1  0  0  0  0
  4  5  1  0  0  0  0
  5  6  1  0  0  0  0
  6  7  1  0  0  0  0
  7  8  1  0  0  0  0
M  END
> <Index>
2241

> <PropertyFieldDistance>
nan

$$$$
11682734
BBcorina  12272117083D 1   1.00000     0.00000 
CORINA 4.3.0 0026  30.10.2019
  9  9  0  0  0  0  0  0  0  0999 V2000
  -34.3712    6.1945  -44.0648 F   0  0  0  0  0  0  0  0  0  0  0  0
  -34.2770    5.0495  -43.2665 C   0  0  0  0  0  0  0  0  0  0  0  0
  -32.9696    4.9208  -42.7855 F   0  0  0  0  0  0  0  0  0  0  0  0
  -35.2462    5.1675  -42.0869 C   0  0  0  0  0  0  0  0  0  0  0  0
  -36.6793    5.2476  -42.6202 C   0  0  0  0  0  0  0  0  0  0  0  0
  -36.9724    4.0086  -43.4695 C   0  0  0  0  0  0  0  0  0  0  0  0
  -36.0190    3.9415  -44.5844 N   0  0  0  0  0  0  0  0  0  0  0  0
  -34.6396    3.8164  -44.0971 C   0  0  0  0  0  0  0  0  0  0  0  0
  -36.4107    2.6622  -45.6494 X   0  0  0  0  0  0  0  0  0  0  0  0
  1  2  1  0  0  0  0
  2  3  1  0  0  0  0
  2  4  1  0  0  0  0
  2  8  1  0  0  0  0
  4  5  1  0  0  0  0
  5  6  1  0  0  0  0
  6  7  1  0  0  0  0
  7  8  1  0  0  0  0
  7  9  1  0  0  0  0
M  END
> <Index>
2247

> <PropertyFieldDistance>
nan

$$$$
12896686
BBcorina  12272117083D 1   1.00000     0.00000 
CORINA 4.3.0 0026  30.10.2019
  8  8  0  0  0  0  0  0  0  0999 V2000
  -34.9808    6.5010  -41.5093 F   0  0  0  0  0  0  0  0  0  0  0  0
  -35.3535    5.8833  -42.7079 C   0  0  0  0  0  0  0  0  0  0  0  0
  -36.6585    5.1099  -42.5008 C   0  0  0  0  0  0  0  0  0  0  0  0
  -37.0291    4.3869  -43.7977 C   0  0  0  0  0  0  0  0  0  0  0  0
  -35.9480    3.4664  -44.1723 N   0  0  0  0  0  0  0  0  0  0  0  0
  -34.6958    4.1916  -44.4226 C   0  0  0  0  0  0  0  0  0  0  0  0
  -34.2559    4.9088  -43.1442 C   0  0  0  0  0  0  0  0  0  0  0  0
  -36.3899    2.5211  -45.5270 X   0  0  0  0  0  0  0  0  0  0  0  0
  1  2  1  0  0  0  0
  2  3  1  0  0  0  0
  2  7  1  0  0  0  0
  3  4  1  0  0  0  0
  4  5  1  0  0  0  0
  5  6  1  0  0  0  0
  5  8  1  0  0  0  0
  6  7  1  0  0  0  0
M  END
> <Index>
2251

> <PropertyFieldDistance>
nan

$$$$
6362382
BBcorina  12272117083D 1   1.00000     0.00000 
CORINA 4.3.0 0026  30.10.2019
  9  9  0  0  0  0  0  0  0  0999 V2000
  -36.4130    2.1645  -44.7006 C   0  0  0  0  0  0  0  0  0  0  0  0
  -36.0144    3.4930  -44.2291 N   0  0  0  0  0  0  0  0  0  0  0  0
  -36.8645    4.4956  -43.8671 C   0  0  0  0  0  0  0  0  0  0  0  0
  -36.1261    5.5597  -43.4918 C   0  0  0  0  0  0  0  0  0  0  0  0
  -34.7703    5.2010  -43.6272 C   0  0  0  0  0  0  0  0  0  0  0  0
  -34.7320    3.9293  -44.0744 C   0  0  0  0  0  0  0  0  0  0  0  0
  -33.4865    3.1299  -44.3583 C   0  0  0  0  0  0  0  0  0  0  0  0
  -33.1496    2.3146  -43.1836 N   0  0  0  0  0  0  0  0  0  0  0  0
  -31.7390    1.3894  -43.4638 X   0  0  0  0  0  0  0  0  0  0  0  0
  1  2  1  0  0  0  0
  2  3  1  0  0  0  0
  2  6  1  0  0  0  0
  3  4  2  0  0  0  0
  4  5  1  0  0  0  0
  5  6  2  0  0  0  0
  6  7  1  0  0  0  0
  7  8  1  0  0  0  0
  8  9  1  0  0  0  0
M  END
> <Index>
2252

> <PropertyFieldDistance>
nan

$$$$
846968
BBcorina  12272117083D 1   1.00000     0.00000 
CORINA 4.3.0 0026  30.10.2019
 15 15  0  0  0  0  0  0  0  0999 V2000
  -36.6310   -0.0377  -46.2652 C   0  0  0  0  0  0  0  0  0  0  0  0
  -35.5491    0.0554  -45.1874 C   0  0  0  0  0  0  0  0  0  0  0  0
  -34.2903   -0.6720  -45.6641 C   0  0  0  0  0  0  0  0  0  0  0  0
  -36.0561   -0.5941  -43.8982 C   0  0  0  0  0  0  0  0  0  0  0  0
  -35.2357    1.4507  -44.9355 O   0  0  0  0  0  0  0  0  0  0  0  0
  -36.2421    2.2355  -44.5066 C   0  0  0  0  0  0  0  0  0  0  0  0
  -37.3520    1.7672  -44.3470 O   0  0  0  0  0  0  0  0  0  0  0  0
  -36.0185    3.5404  -44.2541 N   0  0  0  0  0  0  0  0  0  0  0  0
  -37.1066    4.4093  -43.7856 C   0  0  0  0  0  0  0  0  0  0  0  0
  -36.6631    5.1084  -42.4966 C   0  0  0  0  0  0  0  0  0  0  0  0
  -35.3377    5.8368  -42.7499 C   0  0  0  0  0  0  0  0  0  0  0  0
  -34.2623    4.8232  -43.1475 C   0  0  0  0  0  0  0  0  0  0  0  0
  -34.6820    4.1210  -44.4427 C   0  0  0  0  0  0  0  0  0  0  0  0
  -34.9228    6.5357  -41.5262 N   0  0  0  0  0  0  0  0  0  0  0  0
  -34.5977    5.4256  -40.2668 X   0  0  0  0  0  0  0  0  0  0  0  0
  1  2  1  0  0  0  0
  2  3  1  0  0  0  0
  2  4  1  0  0  0  0
  2  5  1  0  0  0  0
  5  6  1  0  0  0  0
  6  7  2  0  0  0  0
  6  8  1  0  0  0  0
  8  9  1  0  0  0  0
  8 13  1  0  0  0  0
  9 10  1  0  0  0  0
 10 11  1  0  0  0  0
 11 12  1  0  0  0  0
 11 14  1  0  0  0  0
 12 13  1  0  0  0  0
 14 15  1  0  0  0  0
M  END
> <Index>
2258

> <PropertyFieldDistance>
nan

$$$$
469968
BBcorina  12272117083D 1   1.00000     0.00000 
CORINA 4.3.0 0026  30.10.2019
 10 11  0  0  0  0  0  0  0  0999 V2000
  -35.9573    3.4736  -44.1609 N   0  0  0  0  0  0  0  0  0  0  0  0
  -36.9678    4.4892  -43.8343 C   0  0  0  0  0  0  0  0  0  0  0  0
  -36.7095    5.0398  -42.4247 C   0  0  0  0  0  0  0  0  0  0  0  0
  -35.2494    5.4089  -42.3334 C   0  0  0  0  0  0  0  0  0  0  0  0
  -34.6298    6.1763  -41.4256 N   0  0  0  0  0  0  0  0  0  0  0  0
  -33.2685    6.2269  -41.7647 N   0  0  0  0  0  0  0  0  0  0  0  0
  -33.0863    5.5061  -42.8450 C   0  0  0  0  0  0  0  0  0  0  0  0
  -34.3164    4.9786  -43.2240 C   0  0  0  0  0  0  0  0  0  0  0  0
  -34.6364    4.0824  -44.3938 C   0  0  0  0  0  0  0  0  0  0  0  0
  -35.8744    2.2773  -42.9419 X   0  0  0  0  0  0  0  0  0  0  0  0
  1  2  1  0  0  0  0
  1  9  1  0  0  0  0
  1 10  1  0  0  0  0
  2  3  1  0  0  0  0
  3  4  1  0  0  0  0
  4  5  1  0  0  0  0
  4  8  2  0  0  0  0
  5  6  1  0  0  0  0
  6  7  2  0  0  0  0
  7  8  1  0  0  0  0
  8  9  1  0  0  0  0
M  END
> <Index>
2275

> <PropertyFieldDistance>
nan

$$$$
396140
BBcorina  12272117083D 1   1.00000     0.00000 
CORINA 4.3.0 0026  30.10.2019
 14 15  0  0  0  0  0  0  0  0999 V2000
  -35.9777    0.4092  -43.2572 Cl  0  0  0  0  0  0  0  0  0  0  0  0
  -36.3964    1.0936  -44.7968 C   0  0  0  0  0  0  0  0  0  0  0  0
  -36.7807    0.2708  -45.8380 C   0  0  0  0  0  0  0  0  0  0  0  0
  -37.1139    0.8157  -47.0649 C   0  0  0  0  0  0  0  0  0  0  0  0
  -37.0632    2.1842  -47.2539 C   0  0  0  0  0  0  0  0  0  0  0  0
  -36.6857    3.0134  -46.2152 C   0  0  0  0  0  0  0  0  0  0  0  0
  -36.3449    2.4703  -44.9837 C   0  0  0  0  0  0  0  0  0  0  0  0
  -35.9566    3.3058  -43.9329 N   0  0  0  0  0  0  0  0  0  0  0  0
  -37.0241    4.2577  -43.5949 C   0  0  0  0  0  0  0  0  0  0  0  0
  -36.5917    5.0987  -42.3916 C   0  0  0  0  0  0  0  0  0  0  0  0
  -35.3434    5.8043  -42.7134 N   0  0  0  0  0  0  0  0  0  0  0  0
  -34.2759    4.8524  -43.0514 C   0  0  0  0  0  0  0  0  0  0  0  0
  -34.7084    4.0113  -44.2549 C   0  0  0  0  0  0  0  0  0  0  0  0
  -34.8682    6.8266  -41.4277 X   0  0  0  0  0  0  0  0  0  0  0  0
  1  2  1  0  0  0  0
  2  3  2  0  0  0  0
  2  7  1  0  0  0  0
  3  4  1  0  0  0  0
  4  5  2  0  0  0  0
  5  6  1  0  0  0  0
  6  7  2  0  0  0  0
  7  8  1  0  0  0  0
  8  9  1  0  0  0  0
  8 13  1  0  0  0  0
  9 10  1  0  0  0  0
 10 11  1  0  0  0  0
 11 12  1  0  0  0  0
 11 14  1  0  0  0  0
 12 13  1  0  0  0  0
M  END
> <Index>
2300

> <PropertyFieldDistance>
nan

$$$$
401612
BBcorina  12272117083D 1   1.00000     0.00000 
CORINA 4.3.0 0026  30.10.2019
 14 16  0  0  0  0  0  0  0  0999 V2000
  -36.1059    1.6538  -45.9847 C   0  0  0  0  0  0  0  0  0  0  0  0
  -36.3933    2.1751  -44.5752 C   0  0  0  0  0  0  0  0  0  0  0  0
  -36.0172    3.5927  -44.4913 N   0  0  0  0  0  0  0  0  0  0  0  0
  -35.5808    1.3708  -43.5584 C   0  0  0  0  0  0  0  0  0  0  0  0
  -35.7442    1.9916  -42.1695 C   0  0  0  0  0  0  0  0  0  0  0  0
  -34.9318    1.1874  -41.1527 C   0  0  0  0  0  0  0  0  0  0  0  0
  -35.4334   -0.2579  -41.1275 C   0  0  0  0  0  0  0  0  0  0  0  0
  -35.2701   -0.8786  -42.5165 C   0  0  0  0  0  0  0  0  0  0  0  0
  -33.7926   -0.8584  -42.9135 C   0  0  0  0  0  0  0  0  0  0  0  0
  -33.2910    0.5868  -42.9387 C   0  0  0  0  0  0  0  0  0  0  0  0
  -33.4544    1.2075  -41.5498 C   0  0  0  0  0  0  0  0  0  0  0  0
  -34.1035    1.3910  -43.9555 C   0  0  0  0  0  0  0  0  0  0  0  0
  -36.0825   -0.0743  -43.5333 C   0  0  0  0  0  0  0  0  0  0  0  0
  -34.4778    3.8604  -45.1860 X   0  0  0  0  0  0  0  0  0  0  0  0
  1  2  1  0  0  0  0
  2  3  1  0  0  0  0
  2  4  1  0  0  0  0
  3 14  1  0  0  0  0
  4  5  1  0  0  0  0
  4 12  1  0  0  0  0
  4 13  1  0  0  0  0
  5  6  1  0  0  0  0
  6  7  1  0  0  0  0
  6 11  1  0  0  0  0
  7  8  1  0  0  0  0
  8  9  1  0  0  0  0
  8 13  1  0  0  0  0
  9 10  1  0  0  0  0
 10 11  1  0  0  0  0
 10 12  1  0  0  0  0
M  END
> <Index>
2306

> <PropertyFieldDistance>
nan

$$$$
411764
BBcorina  12272117083D 1   1.00000     0.00000 
CORINA 4.3.0 0026  30.10.2019
 13 15  0  0  0  0  0  0  0  0999 V2000
  -36.0173    3.5927  -44.4913 N   0  0  0  0  0  0  0  0  0  0  0  0
  -36.3933    2.1751  -44.5753 C   0  0  0  0  0  0  0  0  0  0  0  0
  -36.1059    1.6538  -45.9846 C   0  0  0  0  0  0  0  0  0  0  0  0
  -36.4976    0.1774  -46.0721 C   0  0  0  0  0  0  0  0  0  0  0  0
  -36.2101   -0.3439  -47.4815 C   0  0  0  0  0  0  0  0  0  0  0  0
  -34.7185   -0.1931  -47.7867 C   0  0  0  0  0  0  0  0  0  0  0  0
  -34.3269    1.2833  -47.6994 C   0  0  0  0  0  0  0  0  0  0  0  0
  -35.1394    2.0876  -48.7162 C   0  0  0  0  0  0  0  0  0  0  0  0
  -36.6310    1.9367  -48.4109 C   0  0  0  0  0  0  0  0  0  0  0  0
  -37.0227    0.4603  -48.4984 C   0  0  0  0  0  0  0  0  0  0  0  0
  -36.9184    2.4581  -47.0014 C   0  0  0  0  0  0  0  0  0  0  0  0
  -34.6142    1.8046  -46.2900 C   0  0  0  0  0  0  0  0  0  0  0  0
  -36.3229    4.2163  -42.9287 X   0  0  0  0  0  0  0  0  0  0  0  0
  1  2  1  0  0  0  0
  1 13  1  0  0  0  0
  2  3  1  0  0  0  0
  3  4  1  0  0  0  0
  3 11  1  0  0  0  0
  3 12  1  0  0  0  0
  4  5  1  0  0  0  0
  5  6  1  0  0  0  0
  5 10  1  0  0  0  0
  6  7  1  0  0  0  0
  7  8  1  0  0  0  0
  7 12  1  0  0  0  0
  8  9  1  0  0  0  0
  9 10  1  0  0  0  0
  9 11  1  0  0  0  0
M  END
> <Index>
2326

> <PropertyFieldDistance>
nan

$$$$
415650
BBcorina  12272117083D 1   1.00000     0.00000 
CORINA 4.3.0 0026  30.10.2019
 13 14  0  0  0  0  0  0  0  0999 V2000
  -35.9664    3.4656  -44.1699 N   0  0  0  0  0  0  0  0  0  0  0  0
  -36.9751    4.4861  -43.8403 C   0  0  0  0  0  0  0  0  0  0  0  0
  -36.6707    5.0323  -42.4414 C   0  0  0  0  0  0  0  0  0  0  0  0
  -35.2186    5.4107  -42.3521 C   0  0  0  0  0  0  0  0  0  0  0  0
  -34.3200    4.9856  -43.2126 C   0  0  0  0  0  0  0  0  0  0  0  0
  -34.6550    4.0939  -44.3735 C   0  0  0  0  0  0  0  0  0  0  0  0
  -34.7821    6.2918  -41.2483 C   0  0  0  0  0  0  0  0  0  0  0  0
  -34.2811    7.5645  -41.5241 C   0  0  0  0  0  0  0  0  0  0  0  0
  -33.8807    8.3842  -40.4890 C   0  0  0  0  0  0  0  0  0  0  0  0
  -33.9756    7.9467  -39.1799 C   0  0  0  0  0  0  0  0  0  0  0  0
  -34.4714    6.6860  -38.8998 C   0  0  0  0  0  0  0  0  0  0  0  0
  -34.8748    5.8564  -39.9259 C   0  0  0  0  0  0  0  0  0  0  0  0
  -36.4340    2.5637  -45.5454 X   0  0  0  0  0  0  0  0  0  0  0  0
  1  2  1  0  0  0  0
  1  6  1  0  0  0  0
  1 13  1  0  0  0  0
  2  3  1  0  0  0  0
  3  4  1  0  0  0  0
  4  5  2  0  0  0  0
  4  7  1  0  0  0  0
  5  6  1  0  0  0  0
  7  8  2  0  0  0  0
  7 12  1  0  0  0  0
  8  9  1  0  0  0  0
  9 10  2  0  0  0  0
 10 11  1  0  0  0  0
 11 12  2  0  0  0  0
M  END
> <Index>
2338

> <PropertyFieldDistance>
nan

$$$$
417052
BBcorina  12272117083D 1   1.00000     0.00000 
CORINA 4.3.0 0026  30.10.2019
  8  8  0  0  0  0  0  0  0  0999 V2000
  -35.9394    3.4720  -44.1476 N   0  0  0  0  0  0  0  0  0  0  0  0
  -37.0342    4.3878  -43.8032 C   0  0  0  0  0  0  0  0  0  0  0  0
  -36.7057    5.1020  -42.4871 C   0  0  0  0  0  0  0  0  0  0  0  0
  -35.3442    5.7499  -42.6263 C   0  0  0  0  0  0  0  0  0  0  0  0
  -35.1682    6.9044  -42.3188 O   0  0  0  0  0  0  0  0  0  0  0  0
  -34.2104    4.9016  -43.1633 C   0  0  0  0  0  0  0  0  0  0  0  0
  -34.6975    4.2001  -44.4365 C   0  0  0  0  0  0  0  0  0  0  0  0
  -36.3752    2.4604  -45.4555 X   0  0  0  0  0  0  0  0  0  0  0  0
  1  2  1  0  0  0  0
  1  7  1  0  0  0  0
  1  8  1  0  0  0  0
  2  3  1  0  0  0  0
  3  4  1  0  0  0  0
  4  5  2  0  0  0  0
  4  6  1  0  0  0  0
  6  7  1  0  0  0  0
M  END
> <Index>
2341

> <PropertyFieldDistance>
nan

$$$$
3219810
BBcorina  12272117083D 1   1.00000     0.00000 
CORINA 4.3.0 0026  30.10.2019
 10 10  0  0  0  0  0  0  0  0999 V2000
  -36.1711    0.5271  -46.5343 C   0  0  0  0  0  0  0  0  0  0  0  0
  -35.7823    1.9276  -46.0565 C   0  0  0  0  0  0  0  0  0  0  0  0
  -36.5152    2.2426  -44.7509 C   0  0  0  0  0  0  0  0  0  0  0  0
  -36.1420    3.5873  -44.2922 N   0  0  0  0  0  0  0  0  0  0  0  0
  -36.9971    4.0198  -43.1779 C   0  0  0  0  0  0  0  0  0  0  0  0
  -36.6299    5.4522  -42.7828 C   0  0  0  0  0  0  0  0  0  0  0  0
  -35.2107    5.5048  -42.4050 N   0  0  0  0  0  0  0  0  0  0  0  0
  -34.3557    5.0723  -43.5191 C   0  0  0  0  0  0  0  0  0  0  0  0
  -34.7229    3.6399  -43.9143 C   0  0  0  0  0  0  0  0  0  0  0  0
  -34.7764    7.0700  -41.8709 X   0  0  0  0  0  0  0  0  0  0  0  0
  1  2  1  0  0  0  0
  2  3  1  0  0  0  0
  3  4  1  0  0  0  0
  4  5  1  0  0  0  0
  4  9  1  0  0  0  0
  5  6  1  0  0  0  0
  6  7  1  0  0  0  0
  7  8  1  0  0  0  0
  7 10  1  0  0  0  0
  8  9  1  0  0  0  0
M  END
> <Index>
2364

> <PropertyFieldDistance>
nan

$$$$
444036
BBcorina  12272117083D 1   1.00000     0.00000 
CORINA 4.3.0 0026  30.10.2019
 12 12  0  0  0  0  0  0  0  0999 V2000
  -36.2573    0.6195  -46.4752 C   0  0  0  0  0  0  0  0  0  0  0  0
  -35.5554    1.5775  -45.5106 C   0  0  0  0  0  0  0  0  0  0  0  0
  -34.8277    0.7725  -44.4319 C   0  0  0  0  0  0  0  0  0  0  0  0
  -36.5771    2.4764  -44.8631 C   0  0  0  0  0  0  0  0  0  0  0  0
  -37.7358    2.1251  -44.7922 O   0  0  0  0  0  0  0  0  0  0  0  0
  -36.2031    3.6706  -44.3626 N   0  0  0  0  0  0  0  0  0  0  0  0
  -37.1596    4.5157  -43.6316 C   0  0  0  0  0  0  0  0  0  0  0  0
  -36.5279    4.9224  -42.2960 C   0  0  0  0  0  0  0  0  0  0  0  0
  -35.2182    5.5392  -42.5451 N   0  0  0  0  0  0  0  0  0  0  0  0
  -34.2881    4.5841  -43.1620 C   0  0  0  0  0  0  0  0  0  0  0  0
  -34.8263    4.1607  -44.5278 C   0  0  0  0  0  0  0  0  0  0  0  0
  -34.5633    6.1895  -41.1055 X   0  0  0  0  0  0  0  0  0  0  0  0
  1  2  1  0  0  0  0
  2  3  1  0  0  0  0
  2  4  1  0  0  0  0
  4  5  2  0  0  0  0
  4  6  1  0  0  0  0
  6  7  1  0  0  0  0
  6 11  1  0  0  0  0
  7  8  1  0  0  0  0
  8  9  1  0  0  0  0
  9 10  1  0  0  0  0
  9 12  1  0  0  0  0
 10 11  1  0  0  0  0
M  END
> <Index>
2393

> <PropertyFieldDistance>
nan

$$$$
3160620
BBcorina  12272117083D 1   1.00000     0.00000 
CORINA 4.3.0 0026  30.10.2019
 12 13  0  0  0  0  0  0  0  0999 V2000
  -35.2201    5.5534  -42.5552 N   0  0  0  0  0  0  0  0  0  0  0  0
  -36.5341    4.9386  -42.2981 C   0  0  0  0  0  0  0  0  0  0  0  0
  -37.1572    4.5107  -43.6312 C   0  0  0  0  0  0  0  0  0  0  0  0
  -36.1976    3.6563  -44.3470 N   0  0  0  0  0  0  0  0  0  0  0  0
  -34.8227    4.1486  -44.5214 C   0  0  0  0  0  0  0  0  0  0  0  0
  -34.2870    4.5905  -43.1553 C   0  0  0  0  0  0  0  0  0  0  0  0
  -36.5683    2.4539  -44.8300 C   0  0  0  0  0  0  0  0  0  0  0  0
  -37.7063    2.0635  -44.6768 O   0  0  0  0  0  0  0  0  0  0  0  0
  -35.5688    1.5946  -45.5605 C   0  0  0  0  0  0  0  0  0  0  0  0
  -36.0510    0.2405  -46.0847 C   0  0  0  0  0  0  0  0  0  0  0  0
  -35.7796    1.3864  -47.0615 C   0  0  0  0  0  0  0  0  0  0  0  0
  -34.5699    6.2261  -41.1239 X   0  0  0  0  0  0  0  0  0  0  0  0
  1  2  1  0  0  0  0
  1  6  1  0  0  0  0
  1 12  1  0  0  0  0
  2  3  1  0  0  0  0
  3  4  1  0  0  0  0
  4  5  1  0  0  0  0
  4  7  1  0  0  0  0
  5  6  1  0  0  0  0
  7  8  2  0  0  0  0
  7  9  1  0  0  0  0
  9 10  1  0  0  0  0
  9 11  1  0  0  0  0
 10 11  1  0  0  0  0
M  END
> <Index>
2397

> <PropertyFieldDistance>
nan

$$$$
448772
BBcorina  12272117083D 1   1.00000     0.00000 
CORINA 4.3.0 0026  30.10.2019
 14 15  0  0  0  0  0  0  0  0999 V2000
  -35.2226    5.5424  -42.5499 N   0  0  0  0  0  0  0  0  0  0  0  0
  -36.5314    4.9233  -42.3019 C   0  0  0  0  0  0  0  0  0  0  0  0
  -37.1577    4.5082  -43.6375 C   0  0  0  0  0  0  0  0  0  0  0  0
  -36.1966    3.6624  -44.3614 N   0  0  0  0  0  0  0  0  0  0  0  0
  -34.8206    4.1554  -44.5246 C   0  0  0  0  0  0  0  0  0  0  0  0
  -34.2879    4.5869  -43.1592 C   0  0  0  0  0  0  0  0  0  0  0  0
  -36.5655    2.4646  -44.8572 C   0  0  0  0  0  0  0  0  0  0  0  0
  -37.7225    2.0983  -44.7652 O   0  0  0  0  0  0  0  0  0  0  0  0
  -35.5734    1.6033  -45.5071 C   0  0  0  0  0  0  0  0  0  0  0  0
  -35.4559    0.2539  -45.3271 C   0  0  0  0  0  0  0  0  0  0  0  0
  -34.4376   -0.3060  -46.0615 C   0  0  0  0  0  0  0  0  0  0  0  0
  -33.7404    0.5541  -46.8131 C   0  0  0  0  0  0  0  0  0  0  0  0
  -34.3444    2.1408  -46.6437 S   0  0  0  0  0  0  0  0  0  0  0  0
  -34.5742    6.2016  -41.1115 X   0  0  0  0  0  0  0  0  0  0  0  0
  1  2  1  0  0  0  0
  1  6  1  0  0  0  0
  1 14  1  0  0  0  0
  2  3  1  0  0  0  0
  3  4  1  0  0  0  0
  4  5  1  0  0  0  0
  4  7  1  0  0  0  0
  5  6  1  0  0  0  0
  7  8  2  0  0  0  0
  7  9  1  0  0  0  0
  9 10  2  0  0  0  0
  9 13  1  0  0  0  0
 10 11  1  0  0  0  0
 11 12  2  0  0  0  0
 12 13  1  0  0  0  0
M  END
> <Index>
2402

> <PropertyFieldDistance>
nan

$$$$
449770
BBcorina  12272117083D 1   1.00000     0.00000 
CORINA 4.3.0 0026  30.10.2019
 11 11  0  0  0  0  0  0  0  0999 V2000
  -35.3992   -0.1834  -47.4912 N   0  0  0  0  0  0  0  0  0  0  0  0
  -36.3828    0.5957  -46.7274 C   0  0  0  0  0  0  0  0  0  0  0  0
  -35.6553    1.6218  -45.8562 C   0  0  0  0  0  0  0  0  0  0  0  0
  -36.6644    2.4210  -45.0726 C   0  0  0  0  0  0  0  0  0  0  0  0
  -37.8488    2.1924  -45.1986 O   0  0  0  0  0  0  0  0  0  0  0  0
  -36.2509    3.3935  -44.2362 N   0  0  0  0  0  0  0  0  0  0  0  0
  -37.1237    4.2495  -43.4194 C   0  0  0  0  0  0  0  0  0  0  0  0
  -36.2134    5.2268  -42.6461 C   0  0  0  0  0  0  0  0  0  0  0  0
  -34.9171    5.2428  -43.4987 C   0  0  0  0  0  0  0  0  0  0  0  0
  -34.8483    3.7708  -43.9838 C   0  0  0  0  0  0  0  0  0  0  0  0
  -36.1718   -1.3446  -48.4805 X   0  0  0  0  0  0  0  0  0  0  0  0
  1  2  1  0  0  0  0
  1 11  1  0  0  0  0
  2  3  1  0  0  0  0
  3  4  1  0  0  0  0
  4  5  2  0  0  0  0
  4  6  1  0  0  0  0
  6  7  1  0  0  0  0
  6 10  1  0  0  0  0
  7  8  1  0  0  0  0
  8  9  1  0  0  0  0
  9 10  1  0  0  0  0
M  END
> <Index>
2408

> <PropertyFieldDistance>
nan

$$$$
461168
BBcorina  12272117083D 1   1.00000     0.00000 
CORINA 4.3.0 0026  30.10.2019
  9  9  0  0  0  0  0  0  0  0999 V2000
  -35.4942    7.8352  -41.3239 C   0  0  0  0  0  0  0  0  0  0  0  0
  -34.9728    6.5142  -41.4836 O   0  0  0  0  0  0  0  0  0  0  0  0
  -35.3535    5.8833  -42.7079 C   0  0  0  0  0  0  0  0  0  0  0  0
  -36.6585    5.1099  -42.5008 C   0  0  0  0  0  0  0  0  0  0  0  0
  -37.0291    4.3869  -43.7977 C   0  0  0  0  0  0  0  0  0  0  0  0
  -35.9480    3.4664  -44.1723 N   0  0  0  0  0  0  0  0  0  0  0  0
  -34.6958    4.1916  -44.4226 C   0  0  0  0  0  0  0  0  0  0  0  0
  -34.2559    4.9088  -43.1442 C   0  0  0  0  0  0  0  0  0  0  0  0
  -36.3899    2.5211  -45.5270 X   0  0  0  0  0  0  0  0  0  0  0  0
  1  2  1  0  0  0  0
  2  3  1  0  0  0  0
  3  4  1  0  0  0  0
  3  8  1  0  0  0  0
  4  5  1  0  0  0  0
  5  6  1  0  0  0  0
  6  7  1  0  0  0  0
  6  9  1  0  0  0  0
  7  8  1  0  0  0  0
M  END
> <Index>
2437

> <PropertyFieldDistance>
nan

$$$$
463382
BBcorina  12272117083D 1   1.00000     0.00000 
CORINA 4.3.0 0026  30.10.2019
 12 12  0  0  0  0  0  0  0  0999 V2000
  -33.8930    5.1900  -39.0782 C   0  0  0  0  0  0  0  0  0  0  0  0
  -35.1220    6.3835  -39.6743 S   0  0  0  0  0  0  0  0  0  0  0  0
  -34.7645    7.7031  -39.2868 O   0  0  0  0  0  0  0  0  0  0  0  0
  -36.4383    5.8901  -39.4660 O   0  0  0  0  0  0  0  0  0  0  0  0
  -34.9395    6.3776  -41.3202 N   0  0  0  0  0  0  0  0  0  0  0  0
  -35.2462    5.1675  -42.0868 C   0  0  0  0  0  0  0  0  0  0  0  0
  -36.6793    5.2476  -42.6203 C   0  0  0  0  0  0  0  0  0  0  0  0
  -36.9723    4.0086  -43.4694 C   0  0  0  0  0  0  0  0  0  0  0  0
  -36.0191    3.9414  -44.5845 N   0  0  0  0  0  0  0  0  0  0  0  0
  -34.6396    3.8164  -44.0971 C   0  0  0  0  0  0  0  0  0  0  0  0
  -34.2769    5.0496  -43.2664 C   0  0  0  0  0  0  0  0  0  0  0  0
  -36.4111    2.6624  -45.6495 X   0  0  0  0  0  0  0  0  0  0  0  0
  1  2  1  0  0  0  0
  2  3  2  0  0  0  0
  2  4  2  0  0  0  0
  2  5  1  0  0  0  0
  5  6  1  0  0  0  0
  6  7  1  0  0  0  0
  6 11  1  0  0  0  0
  7  8  1  0  0  0  0
  8  9  1  0  0  0  0
  9 10  1  0  0  0  0
  9 12  1  0  0  0  0
 10 11  1  0  0  0  0
M  END
> <Index>
2446

> <PropertyFieldDistance>
nan

$$$$
464318
BBcorina  12272117083D 1   1.00000     0.00000 
CORINA 4.3.0 0026  30.10.2019
 12 12  0  0  0  0  0  0  0  0999 V2000
  -36.6348    1.7379  -46.1749 C   0  0  0  0  0  0  0  0  0  0  0  0
  -36.1562    1.8886  -44.4316 S   0  0  0  0  0  0  0  0  0  0  0  0
  -34.8627    1.3394  -44.2204 O   0  0  0  0  0  0  0  0  0  0  0  0
  -37.2445    1.5469  -43.5844 O   0  0  0  0  0  0  0  0  0  0  0  0
  -35.9521    3.5154  -44.1983 N   0  0  0  0  0  0  0  0  0  0  0  0
  -37.0771    4.3568  -43.7677 C   0  0  0  0  0  0  0  0  0  0  0  0
  -36.6626    5.1291  -42.5115 C   0  0  0  0  0  0  0  0  0  0  0  0
  -35.3723    5.9018  -42.7950 C   0  0  0  0  0  0  0  0  0  0  0  0
  -34.2541    4.9185  -43.1483 C   0  0  0  0  0  0  0  0  0  0  0  0
  -34.6413    4.1437  -44.4119 C   0  0  0  0  0  0  0  0  0  0  0  0
  -34.9897    6.6697  -41.6026 N   0  0  0  0  0  0  0  0  0  0  0  0
  -34.6216    5.6298  -40.2960 X   0  0  0  0  0  0  0  0  0  0  0  0
  1  2  1  0  0  0  0
  2  3  2  0  0  0  0
  2  4  2  0  0  0  0
  2  5  1  0  0  0  0
  5  6  1  0  0  0  0
  5 10  1  0  0  0  0
  6  7  1  0  0  0  0
  7  8  1  0  0  0  0
  8  9  1  0  0  0  0
  8 11  1  0  0  0  0
  9 10  1  0  0  0  0
 11 12  1  0  0  0  0
M  END
> <Index>
2451

> <PropertyFieldDistance>
nan

$$$$
4785374
BBcorina  12272117083D 1   1.00000     0.00000 
CORINA 4.3.0 0026  30.10.2019
  5  5  0  0  0  0  0  0  0  0999 V2000
  -36.0032    3.7116  -44.2370 N   0  0  0  0  0  0  0  0  0  0  0  0
  -37.1759    4.5246  -43.8641 C   0  0  0  0  0  0  0  0  0  0  0  0
  -36.4846    4.8057  -42.5225 C   0  0  0  0  0  0  0  0  0  0  0  0
  -35.7852    3.4674  -42.7989 C   0  0  0  0  0  0  0  0  0  0  0  0
  -36.4810    2.2776  -45.0366 X   0  0  0  0  0  0  0  0  0  0  0  0
  1  2  1  0  0  0  0
  1  4  1  0  0  0  0
  1  5  1  0  0  0  0
  2  3  1  0  0  0  0
  3  4  1  0  0  0  0
M  END
> <Index>
2463

> <PropertyFieldDistance>
nan

$$$$
2018300
BBcorina  12272117083D 1   1.00000     0.00000 
CORINA 4.3.0 0026  30.10.2019
 14 15  0  0  0  0  0  0  0  0999 V2000
  -38.0696    1.4580  -43.4680 C   0  0  0  0  0  0  0  0  0  0  0  0
  -37.3739    1.5554  -44.8012 C   0  0  0  0  0  0  0  0  0  0  0  0
  -37.7548    0.7311  -45.8415 C   0  0  0  0  0  0  0  0  0  0  0  0
  -37.1127    0.8156  -47.0635 C   0  0  0  0  0  0  0  0  0  0  0  0
  -36.0883    1.7257  -47.2483 C   0  0  0  0  0  0  0  0  0  0  0  0
  -35.7024    2.5533  -46.2120 C   0  0  0  0  0  0  0  0  0  0  0  0
  -36.3448    2.4708  -44.9834 C   0  0  0  0  0  0  0  0  0  0  0  0
  -35.9567    3.3058  -43.9331 N   0  0  0  0  0  0  0  0  0  0  0  0
  -37.0240    4.2576  -43.5950 C   0  0  0  0  0  0  0  0  0  0  0  0
  -36.5917    5.0986  -42.3916 C   0  0  0  0  0  0  0  0  0  0  0  0
  -35.3434    5.8041  -42.7134 N   0  0  0  0  0  0  0  0  0  0  0  0
  -34.2760    4.8523  -43.0515 C   0  0  0  0  0  0  0  0  0  0  0  0
  -34.7084    4.0113  -44.2549 C   0  0  0  0  0  0  0  0  0  0  0  0
  -34.8683    6.8264  -41.4276 X   0  0  0  0  0  0  0  0  0  0  0  0
  1  2  1  0  0  0  0
  2  3  2  0  0  0  0
  2  7  1  0  0  0  0
  3  4  1  0  0  0  0
  4  5  2  0  0  0  0
  5  6  1  0  0  0  0
  6  7  2  0  0  0  0
  7  8  1  0  0  0  0
  8  9  1  0  0  0  0
  8 13  1  0  0  0  0
  9 10  1  0  0  0  0
 10 11  1  0  0  0  0
 11 12  1  0  0  0  0
 11 14  1  0  0  0  0
 12 13  1  0  0  0  0
M  END
> <Index>
2464

> <PropertyFieldDistance>
nan

$$$$
6483502
BBcorina  12272117083D 1   1.00000     0.00000 
CORINA 4.3.0 0026  30.10.2019
  7  7  0  0  0  0  0  0  0  0999 V2000
  -34.1138    4.7833  -41.6813 O   0  0  0  0  0  0  0  0  0  0  0  0
  -34.9362    5.0165  -42.8264 C   0  0  0  0  0  0  0  0  0  0  0  0
  -36.4398    4.8672  -42.4624 C   0  0  0  0  0  0  0  0  0  0  0  0
  -37.0524    4.4783  -43.8311 C   0  0  0  0  0  0  0  0  0  0  0  0
  -36.0426    3.6037  -44.4646 N   0  0  0  0  0  0  0  0  0  0  0  0
  -34.7228    3.9140  -43.8849 C   0  0  0  0  0  0  0  0  0  0  0  0
  -36.0306    3.8111  -46.1619 X   0  0  0  0  0  0  0  0  0  0  0  0
  1  2  1  0  0  0  0
  2  3  1  0  0  0  0
  2  6  1  0  0  0  0
  3  4  1  0  0  0  0
  4  5  1  0  0  0  0
  5  6  1  0  0  0  0
  5  7  1  0  0  0  0
M  END
> <Index>
2469

> <PropertyFieldDistance>
nan

$$$$
548532
BBcorina  12272117083D 1   1.00000     0.00000 
CORINA 4.3.0 0026  30.10.2019
 13 14  0  0  0  0  0  0  0  0999 V2000
  -36.0051    3.6171  -44.3789 N   0  0  0  0  0  0  0  0  0  0  0  0
  -37.0060    4.4932  -43.7541 C   0  0  0  0  0  0  0  0  0  0  0  0
  -36.5673    4.8277  -42.3265 C   0  0  0  0  0  0  0  0  0  0  0  0
  -35.2503    5.4787  -42.3614 N   0  0  0  0  0  0  0  0  0  0  0  0
  -34.2493    4.6026  -42.9861 C   0  0  0  0  0  0  0  0  0  0  0  0
  -34.6880    4.2682  -44.4137 C   0  0  0  0  0  0  0  0  0  0  0  0
  -34.8503    5.8623  -41.0866 C   0  0  0  0  0  0  0  0  0  0  0  0
  -33.6253    6.4989  -40.9009 C   0  0  0  0  0  0  0  0  0  0  0  0
  -33.2516    6.8654  -39.6897 N   0  0  0  0  0  0  0  0  0  0  0  0
  -34.0335    6.6198  -38.6519 C   0  0  0  0  0  0  0  0  0  0  0  0
  -35.2498    5.9888  -38.8322 C   0  0  0  0  0  0  0  0  0  0  0  0
  -35.6340    5.6228  -40.0432 N   0  0  0  0  0  0  0  0  0  0  0  0
  -36.4971    3.1452  -45.9471 X   0  0  0  0  0  0  0  0  0  0  0  0
  1  2  1  0  0  0  0
  1  6  1  0  0  0  0
  1 13  1  0  0  0  0
  2  3  1  0  0  0  0
  3  4  1  0  0  0  0
  4  5  1  0  0  0  0
  4  7  1  0  0  0  0
  5  6  1  0  0  0  0
  7  8  2  0  0  0  0
  7 12  1  0  0  0  0
  8  9  1  0  0  0  0
  9 10  2  0  0  0  0
 10 11  1  0  0  0  0
 11 12  2  0  0  0  0
M  END
> <Index>
2476

> <PropertyFieldDistance>
nan

$$$$
745914
BBcorina  12272117083D 1   1.00000     0.00000 
CORINA 4.3.0 0026  30.10.2019
 13 14  0  0  0  0  0  0  0  0999 V2000
  -35.9480    3.4664  -44.1723 N   0  0  0  0  0  0  0  0  0  0  0  0
  -37.0291    4.3869  -43.7977 C   0  0  0  0  0  0  0  0  0  0  0  0
  -36.6585    5.1099  -42.5008 C   0  0  0  0  0  0  0  0  0  0  0  0
  -35.3535    5.8833  -42.7079 C   0  0  0  0  0  0  0  0  0  0  0  0
  -34.2559    4.9088  -43.1442 C   0  0  0  0  0  0  0  0  0  0  0  0
  -34.6958    4.1916  -44.4226 C   0  0  0  0  0  0  0  0  0  0  0  0
  -34.9521    6.5487  -41.4168 C   0  0  0  0  0  0  0  0  0  0  0  0
  -34.8184    7.9234  -41.3601 C   0  0  0  0  0  0  0  0  0  0  0  0
  -34.4506    8.5339  -40.1757 C   0  0  0  0  0  0  0  0  0  0  0  0
  -34.2163    7.7697  -39.0479 C   0  0  0  0  0  0  0  0  0  0  0  0
  -34.3500    6.3949  -39.1046 C   0  0  0  0  0  0  0  0  0  0  0  0
  -34.7229    5.7849  -40.2876 C   0  0  0  0  0  0  0  0  0  0  0  0
  -36.3899    2.5211  -45.5270 X   0  0  0  0  0  0  0  0  0  0  0  0
  1  2  1  0  0  0  0
  1  6  1  0  0  0  0
  1 13  1  0  0  0  0
  2  3  1  0  0  0  0
  3  4  1  0  0  0  0
  4  5  1  0  0  0  0
  4  7  1  0  0  0  0
  5  6  1  0  0  0  0
  7  8  2  0  0  0  0
  7 12  1  0  0  0  0
  8  9  1  0  0  0  0
  9 10  2  0  0  0  0
 10 11  1  0  0  0  0
 11 12  2  0  0  0  0
M  END
> <Index>
2480

> <PropertyFieldDistance>
nan

$$$$
8375916
BBcorina  12272117083D 1   1.00000     0.00000 
CORINA 4.3.0 0026  30.10.2019
  7  7  0  0  0  0  0  0  0  0999 V2000
  -35.9672    3.4649  -44.1733 N   0  0  0  0  0  0  0  0  0  0  0  0
  -36.9755    4.4842  -43.8386 C   0  0  0  0  0  0  0  0  0  0  0  0
  -36.6645    5.0345  -42.4443 C   0  0  0  0  0  0  0  0  0  0  0  0
  -35.2102    5.4042  -42.3578 C   0  0  0  0  0  0  0  0  0  0  0  0
  -34.3244    4.9850  -43.2092 C   0  0  0  0  0  0  0  0  0  0  0  0
  -34.6557    4.0950  -44.3722 C   0  0  0  0  0  0  0  0  0  0  0  0
  -35.8904    2.2584  -42.9640 X   0  0  0  0  0  0  0  0  0  0  0  0
  1  2  1  0  0  0  0
  1  6  1  0  0  0  0
  1  7  1  0  0  0  0
  2  3  1  0  0  0  0
  3  4  1  0  0  0  0
  4  5  2  0  0  0  0
  5  6  1  0  0  0  0
M  END
> <Index>
2492

> <PropertyFieldDistance>
nan

$$$$
1028232
BBcorina  12272117083D 1   1.00000     0.00000 
CORINA 4.3.0 0026  30.10.2019
  8  8  0  0  0  0  0  0  0  0999 V2000
  -36.9717    4.0441  -45.2162 N   0  0  0  0  0  0  0  0  0  0  0  0
  -36.2643    3.5556  -44.0250 C   0  0  0  0  0  0  0  0  0  0  0  0
  -36.2435    2.0240  -44.0334 C   0  0  0  0  0  0  0  0  0  0  0  0
  -35.4372    1.5258  -42.8312 C   0  0  0  0  0  0  0  0  0  0  0  0
  -34.1171    2.0701  -42.8861 O   0  0  0  0  0  0  0  0  0  0  0  0
  -34.0718    3.4974  -42.8336 C   0  0  0  0  0  0  0  0  0  0  0  0
  -34.8233    4.0749  -44.0359 C   0  0  0  0  0  0  0  0  0  0  0  0
  -37.7387    5.5400  -44.9030 X   0  0  0  0  0  0  0  0  0  0  0  0
  1  2  1  0  0  0  0
  1  8  1  0  0  0  0
  2  3  1  0  0  0  0
  2  7  1  0  0  0  0
  3  4  1  0  0  0  0
  4  5  1  0  0  0  0
  5  6  1  0  0  0  0
  6  7  1  0  0  0  0
M  END
> <Index>
2496

> <PropertyFieldDistance>
nan

$$$$
14595850
BBcorina  12272117083D 1   1.00000     0.00000 
CORINA 4.3.0 0026  30.10.2019
  6  6  0  0  0  0  0  0  0  0999 V2000
  -33.7212    3.7401  -44.6338 F   0  0  0  0  0  0  0  0  0  0  0  0
  -35.0923    3.5348  -44.8212 C   0  0  0  0  0  0  0  0  0  0  0  0
  -36.0491    4.2157  -43.8405 C   0  0  0  0  0  0  0  0  0  0  0  0
  -35.8320    2.7028  -43.7716 C   0  0  0  0  0  0  0  0  0  0  0  0
  -35.0481    2.1807  -42.6442 N   0  0  0  0  0  0  0  0  0  0  0  0
  -35.4353    0.5442  -42.3344 X   0  0  0  0  0  0  0  0  0  0  0  0
  1  2  1  0  0  0  0
  2  3  1  0  0  0  0
  2  4  1  0  0  0  0
  3  4  1  0  0  0  0
  4  5  1  0  0  0  0
  5  6  1  0  0  0  0
M  END
> <Index>
2507

> <PropertyFieldDistance>
nan

$$$$
872454
BBcorina  12272117083D 1   1.00000     0.00000 
CORINA 4.3.0 0026  30.10.2019
  9  9  0  0  0  0  0  0  0  0999 V2000
  -36.1204    1.4787  -45.1823 O   0  0  0  0  0  0  0  0  0  0  0  0
  -36.1398    2.9076  -45.1745 C   0  0  0  0  0  0  0  0  0  0  0  0
  -34.7044    3.4372  -45.1853 C   0  0  0  0  0  0  0  0  0  0  0  0
  -33.9644    2.9303  -43.9458 C   0  0  0  0  0  0  0  0  0  0  0  0
  -34.6805    3.4237  -42.6870 C   0  0  0  0  0  0  0  0  0  0  0  0
  -36.1159    2.8942  -42.6761 C   0  0  0  0  0  0  0  0  0  0  0  0
  -36.8559    3.4010  -43.9157 C   0  0  0  0  0  0  0  0  0  0  0  0
  -36.8035    3.3679  -41.4675 N   0  0  0  0  0  0  0  0  0  0  0  0
  -36.9455    5.0720  -41.4714 X   0  0  0  0  0  0  0  0  0  0  0  0
  1  2  1  0  0  0  0
  2  3  1  0  0  0  0
  2  7  1  0  0  0  0
  3  4  1  0  0  0  0
  4  5  1  0  0  0  0
  5  6  1  0  0  0  0
  6  7  1  0  0  0  0
  6  8  1  0  0  0  0
  8  9  1  0  0  0  0
M  END
> <Index>
2532

> <PropertyFieldDistance>
nan

$$$$
860352
BBcorina  12272117083D 1   1.00000     0.00000 
CORINA 4.3.0 0026  30.10.2019
 11 12  0  0  0  0  0  0  0  0999 V2000
  -38.3022    6.6322  -41.0513 N   0  0  0  0  0  0  0  0  0  0  0  0
  -37.3586    5.6047  -41.5117 C   0  0  0  0  0  0  0  0  0  0  0  0
  -37.9452    4.8911  -42.7293 C   0  0  0  0  0  0  0  0  0  0  0  0
  -36.9240    3.9108  -43.3264 C   0  0  0  0  0  0  0  0  0  0  0  0
  -35.7233    4.6629  -43.6588 N   0  0  0  0  0  0  0  0  0  0  0  0
  -34.6572    3.9465  -44.3600 C   0  0  0  0  0  0  0  0  0  0  0  0
  -33.3377    4.6522  -43.9632 C   0  0  0  0  0  0  0  0  0  0  0  0
  -33.7556    5.7340  -42.9299 C   0  0  0  0  0  0  0  0  0  0  0  0
  -35.0989    5.1864  -42.4154 C   0  0  0  0  0  0  0  0  0  0  0  0
  -36.0194    6.2691  -41.8659 C   0  0  0  0  0  0  0  0  0  0  0  0
  -38.5725    7.8046  -42.2664 X   0  0  0  0  0  0  0  0  0  0  0  0
  1  2  1  0  0  0  0
  1 11  1  0  0  0  0
  2  3  1  0  0  0  0
  2 10  1  0  0  0  0
  3  4  1  0  0  0  0
  4  5  1  0  0  0  0
  5  6  1  0  0  0  0
  5  9  1  0  0  0  0
  6  7  1  0  0  0  0
  7  8  1  0  0  0  0
  8  9  1  0  0  0  0
  9 10  1  0  0  0  0
M  END
> <Index>
2533

> <PropertyFieldDistance>
nan

$$$$
565456
BBcorina  12272117083D 1   1.00000     0.00000 
CORINA 4.3.0 0026  30.10.2019
  9  9  0  0  0  0  0  0  0  0999 V2000
  -36.4157    2.1560  -44.7064 C   0  0  0  0  0  0  0  0  0  0  0  0
  -36.0172    3.4827  -44.2299 N   0  0  0  0  0  0  0  0  0  0  0  0
  -36.8371    4.4983  -43.8662 C   0  0  0  0  0  0  0  0  0  0  0  0
  -36.0799    5.4975  -43.5030 N   0  0  0  0  0  0  0  0  0  0  0  0
  -34.8424    5.1702  -43.6266 N   0  0  0  0  0  0  0  0  0  0  0  0
  -34.7539    3.9454  -44.0687 C   0  0  0  0  0  0  0  0  0  0  0  0
  -33.4824    3.1862  -44.3474 C   0  0  0  0  0  0  0  0  0  0  0  0
  -33.0748    3.4085  -45.7411 N   0  0  0  0  0  0  0  0  0  0  0  0
  -31.6326    2.5627  -46.1002 X   0  0  0  0  0  0  0  0  0  0  0  0
  1  2  1  0  0  0  0
  2  3  1  0  0  0  0
  2  6  1  0  0  0  0
  3  4  2  0  0  0  0
  4  5  1  0  0  0  0
  5  6  2  0  0  0  0
  6  7  1  0  0  0  0
  7  8  1  0  0  0  0
  8  9  1  0  0  0  0
M  END
> <Index>
2560

> <PropertyFieldDistance>
nan

$$$$
1155338
BBcorina  12272117083D 1   1.00000     0.00000 
CORINA 4.3.0 0026  30.10.2019
  9  9  0  0  0  0  0  0  0  0999 V2000
  -36.3256    2.4445  -45.0979 C   0  0  0  0  0  0  0  0  0  0  0  0
  -36.0591    3.1985  -43.8656 N   0  0  0  0  0  0  0  0  0  0  0  0
  -37.0922    4.2431  -43.6469 C   0  0  0  0  0  0  0  0  0  0  0  0
  -36.3981    5.2327  -42.6749 C   0  0  0  0  0  0  0  0  0  0  0  0
  -34.9355    5.2372  -43.1755 C   0  0  0  0  0  0  0  0  0  0  0  0
  -33.9687    5.2799  -41.9904 C   0  0  0  0  0  0  0  0  0  0  0  0
  -32.5892    5.3708  -42.4868 N   0  0  0  0  0  0  0  0  0  0  0  0
  -34.7701    3.9184  -43.9531 C   0  0  0  0  0  0  0  0  0  0  0  0
  -31.4738    5.4209  -41.1916 X   0  0  0  0  0  0  0  0  0  0  0  0
  1  2  1  0  0  0  0
  2  3  1  0  0  0  0
  2  8  1  0  0  0  0
  3  4  1  0  0  0  0
  4  5  1  0  0  0  0
  5  6  1  0  0  0  0
  5  8  1  0  0  0  0
  6  7  1  0  0  0  0
  7  9  1  0  0  0  0
M  END
> <Index>
2561

> <PropertyFieldDistance>
nan

$$$$
1155354
BBcorina  12272117083D 1   1.00000     0.00000 
CORINA 4.3.0 0026  30.10.2019
 10 10  0  0  0  0  0  0  0  0999 V2000
  -35.6631    1.6870  -45.8494 C   0  0  0  0  0  0  0  0  0  0  0  0
  -36.6492    2.2846  -44.8438 C   0  0  0  0  0  0  0  0  0  0  0  0
  -36.2389    3.6554  -44.5110 N   0  0  0  0  0  0  0  0  0  0  0  0
  -37.1109    4.2301  -43.4636 C   0  0  0  0  0  0  0  0  0  0  0  0
  -36.2300    5.1482  -42.5962 C   0  0  0  0  0  0  0  0  0  0  0  0
  -34.8104    5.0308  -43.1969 C   0  0  0  0  0  0  0  0  0  0  0  0
  -33.7551    4.9969  -42.0895 C   0  0  0  0  0  0  0  0  0  0  0  0
  -33.6898    6.3103  -41.4349 N   0  0  0  0  0  0  0  0  0  0  0  0
  -34.8638    3.6780  -43.9504 C   0  0  0  0  0  0  0  0  0  0  0  0
  -32.5198    6.3160  -40.1879 X   0  0  0  0  0  0  0  0  0  0  0  0
  1  2  1  0  0  0  0
  2  3  1  0  0  0  0
  3  4  1  0  0  0  0
  3  9  1  0  0  0  0
  4  5  1  0  0  0  0
  5  6  1  0  0  0  0
  6  7  1  0  0  0  0
  6  9  1  0  0  0  0
  7  8  1  0  0  0  0
  8 10  1  0  0  0  0
M  END
> <Index>
2563

> <PropertyFieldDistance>
nan

$$$$
1155362
BBcorina  12272117083D 1   1.00000     0.00000 
CORINA 4.3.0 0026  30.10.2019
 11 12  0  0  0  0  0  0  0  0999 V2000
  -34.0664    6.9313  -41.7602 N   0  0  0  0  0  0  0  0  0  0  0  0
  -33.9920    6.0024  -42.8958 C   0  0  0  0  0  0  0  0  0  0  0  0
  -34.9206    4.8129  -42.6432 C   0  0  0  0  0  0  0  0  0  0  0  0
  -36.3990    5.2597  -42.7112 C   0  0  0  0  0  0  0  0  0  0  0  0
  -37.0862    4.0740  -43.4342 C   0  0  0  0  0  0  0  0  0  0  0  0
  -36.0751    3.6565  -44.4390 N   0  0  0  0  0  0  0  0  0  0  0  0
  -34.7647    3.7662  -43.7619 C   0  0  0  0  0  0  0  0  0  0  0  0
  -36.3201    2.2808  -44.8920 C   0  0  0  0  0  0  0  0  0  0  0  0
  -37.6858    1.9728  -45.5091 C   0  0  0  0  0  0  0  0  0  0  0  0
  -36.4429    2.0443  -46.3986 C   0  0  0  0  0  0  0  0  0  0  0  0
  -33.0411    8.2783  -42.0023 X   0  0  0  0  0  0  0  0  0  0  0  0
  1  2  1  0  0  0  0
  1 11  1  0  0  0  0
  2  3  1  0  0  0  0
  3  4  1  0  0  0  0
  3  7  1  0  0  0  0
  4  5  1  0  0  0  0
  5  6  1  0  0  0  0
  6  7  1  0  0  0  0
  6  8  1  0  0  0  0
  8  9  1  0  0  0  0
  8 10  1  0  0  0  0
  9 10  1  0  0  0  0
M  END
> <Index>
2564

> <PropertyFieldDistance>
nan

$$$$
5631376
BBcorina  12272117083D 1   1.00000     0.00000 
CORINA 4.3.0 0026  30.10.2019
 13 13  0  0  0  0  0  0  0  0999 V2000
  -35.0631    0.7126  -47.8978 C   0  0  0  0  0  0  0  0  0  0  0  0
  -35.8960    0.9050  -46.7242 O   0  0  0  0  0  0  0  0  0  0  0  0
  -35.7076    2.0331  -46.0215 C   0  0  0  0  0  0  0  0  0  0  0  0
  -34.8744    2.8333  -46.3757 O   0  0  0  0  0  0  0  0  0  0  0  0
  -36.5353    2.3017  -44.7912 C   0  0  0  0  0  0  0  0  0  0  0  0
  -36.1406    3.5906  -44.2072 N   0  0  0  0  0  0  0  0  0  0  0  0
  -37.0339    3.9803  -43.2010 C   0  0  0  0  0  0  0  0  0  0  0  0
  -36.7506    5.4208  -42.7190 C   0  0  0  0  0  0  0  0  0  0  0  0
  -35.5328    5.4091  -41.8305 C   0  0  0  0  0  0  0  0  0  0  0  0
  -34.2771    5.6741  -42.5689 N   0  0  0  0  0  0  0  0  0  0  0  0
  -34.1954    4.9840  -43.8726 C   0  0  0  0  0  0  0  0  0  0  0  0
  -34.7222    3.5732  -43.7964 C   0  0  0  0  0  0  0  0  0  0  0  0
  -34.0141    7.3544  -42.7474 X   0  0  0  0  0  0  0  0  0  0  0  0
  1  2  1  0  0  0  0
  2  3  1  0  0  0  0
  3  4  2  0  0  0  0
  3  5  1  0  0  0  0
  5  6  1  0  0  0  0
  6  7  1  0  0  0  0
  6 12  1  0  0  0  0
  7  8  1  0  0  0  0
  8  9  1  0  0  0  0
  9 10  1  0  0  0  0
 10 11  1  0  0  0  0
 10 13  1  0  0  0  0
 11 12  1  0  0  0  0
M  END
> <Index>
2567

> <PropertyFieldDistance>
nan

$$$$
606816
BBcorina  12272117083D 1   1.00000     0.00000 
CORINA 4.3.0 0026  30.10.2019
 14 14  0  0  0  0  0  0  0  0999 V2000
  -35.5031   -0.7030  -48.5313 C   0  0  0  0  0  0  0  0  0  0  0  0
  -35.0920    0.6394  -47.9231 C   0  0  0  0  0  0  0  0  0  0  0  0
  -35.8967    0.9005  -46.7270 N   0  0  0  0  0  0  0  0  0  0  0  0
  -35.7076    2.0331  -46.0215 C   0  0  0  0  0  0  0  0  0  0  0  0
  -34.8712    2.8364  -46.3769 O   0  0  0  0  0  0  0  0  0  0  0  0
  -36.5353    2.3017  -44.7912 C   0  0  0  0  0  0  0  0  0  0  0  0
  -36.1406    3.5906  -44.2072 N   0  0  0  0  0  0  0  0  0  0  0  0
  -37.0339    3.9803  -43.2010 C   0  0  0  0  0  0  0  0  0  0  0  0
  -36.7506    5.4208  -42.7190 C   0  0  0  0  0  0  0  0  0  0  0  0
  -35.5328    5.4091  -41.8305 C   0  0  0  0  0  0  0  0  0  0  0  0
  -34.2771    5.6741  -42.5689 N   0  0  0  0  0  0  0  0  0  0  0  0
  -34.1954    4.9840  -43.8726 C   0  0  0  0  0  0  0  0  0  0  0  0
  -34.7222    3.5732  -43.7964 C   0  0  0  0  0  0  0  0  0  0  0  0
  -34.0141    7.3544  -42.7474 X   0  0  0  0  0  0  0  0  0  0  0  0
  1  2  1  0  0  0  0
  2  3  1  0  0  0  0
  3  4  1  0  0  0  0
  4  5  2  0  0  0  0
  4  6  1  0  0  0  0
  6  7  1  0  0  0  0
  7  8  1  0  0  0  0
  7 13  1  0  0  0  0
  8  9  1  0  0  0  0
  9 10  1  0  0  0  0
 10 11  1  0  0  0  0
 11 12  1  0  0  0  0
 11 14  1  0  0  0  0
 12 13  1  0  0  0  0
M  END
> <Index>
2568

> <PropertyFieldDistance>
nan

$$$$
13947098
BBcorina  12272117083D 1   1.00000     0.00000 
CORINA 4.3.0 0026  30.10.2019
 14 15  0  0  0  0  0  0  0  0999 V2000
  -34.9761    6.8864  -41.8700 N   0  0  0  0  0  0  0  0  0  0  0  0
  -35.3853    5.9991  -42.9670 C   0  0  0  0  0  0  0  0  0  0  0  0
  -36.6586    5.2475  -42.5692 C   0  0  0  0  0  0  0  0  0  0  0  0
  -37.0466    4.2817  -43.6912 C   0  0  0  0  0  0  0  0  0  0  0  0
  -35.9495    3.3336  -43.9235 N   0  0  0  0  0  0  0  0  0  0  0  0
  -34.7290    4.0285  -44.3527 C   0  0  0  0  0  0  0  0  0  0  0  0
  -34.2720    4.9868  -43.2505 C   0  0  0  0  0  0  0  0  0  0  0  0
  -36.3191    2.3595  -44.8461 C   0  0  0  0  0  0  0  0  0  0  0  0
  -35.4289    1.3523  -45.2186 C   0  0  0  0  0  0  0  0  0  0  0  0
  -35.8340    0.4058  -46.1360 C   0  0  0  0  0  0  0  0  0  0  0  0
  -37.0453    0.4453  -46.6590 N   0  0  0  0  0  0  0  0  0  0  0  0
  -37.9162    1.3818  -46.3323 C   0  0  0  0  0  0  0  0  0  0  0  0
  -37.5912    2.3614  -45.4179 C   0  0  0  0  0  0  0  0  0  0  0  0
  -34.5582    5.9865  -40.4774 X   0  0  0  0  0  0  0  0  0  0  0  0
  1  2  1  0  0  0  0
  1 14  1  0  0  0  0
  2  3  1  0  0  0  0
  2  7  1  0  0  0  0
  3  4  1  0  0  0  0
  4  5  1  0  0  0  0
  5  6  1  0  0  0  0
  5  8  1  0  0  0  0
  6  7  1  0  0  0  0
  8  9  2  0  0  0  0
  8 13  1  0  0  0  0
  9 10  1  0  0  0  0
 10 11  2  0  0  0  0
 11 12  1  0  0  0  0
 12 13  2  0  0  0  0
M  END
> <Index>
2578

> <PropertyFieldDistance>
nan

$$$$
4351218
BBcorina  12272117083D 1   1.00000     0.00000 
CORINA 4.3.0 0026  30.10.2019
 12 12  0  0  0  0  0  0  0  0999 V2000
  -35.7467    8.7995  -41.9391 C   0  0  0  0  0  0  0  0  0  0  0  0
  -35.9369    7.5604  -41.0620 C   0  0  0  0  0  0  0  0  0  0  0  0
  -34.9622    6.5320  -41.4494 N   0  0  0  0  0  0  0  0  0  0  0  0
  -34.7883    5.5416  -40.3785 C   0  0  0  0  0  0  0  0  0  0  0  0
  -34.0190    6.1753  -39.2177 C   0  0  0  0  0  0  0  0  0  0  0  0
  -35.3536    5.8832  -42.7080 C   0  0  0  0  0  0  0  0  0  0  0  0
  -36.6585    5.1099  -42.5009 C   0  0  0  0  0  0  0  0  0  0  0  0
  -37.0291    4.3869  -43.7977 C   0  0  0  0  0  0  0  0  0  0  0  0
  -35.9480    3.4664  -44.1723 N   0  0  0  0  0  0  0  0  0  0  0  0
  -34.6958    4.1916  -44.4226 C   0  0  0  0  0  0  0  0  0  0  0  0
  -34.2560    4.9088  -43.1442 C   0  0  0  0  0  0  0  0  0  0  0  0
  -36.3899    2.5211  -45.5270 X   0  0  0  0  0  0  0  0  0  0  0  0
  1  2  1  0  0  0  0
  2  3  1  0  0  0  0
  3  4  1  0  0  0  0
  3  6  1  0  0  0  0
  4  5  1  0  0  0  0
  6  7  1  0  0  0  0
  6 11  1  0  0  0  0
  7  8  1  0  0  0  0
  8  9  1  0  0  0  0
  9 10  1  0  0  0  0
  9 12  1  0  0  0  0
 10 11  1  0  0  0  0
M  END
> <Index>
2579

> <PropertyFieldDistance>
nan

$$$$
4351220
BBcorina  12272117083D 1   1.00000     0.00000 
CORINA 4.3.0 0026  30.10.2019
 10 10  0  0  0  0  0  0  0  0999 V2000
  -33.7103    7.2834  -41.6116 C   0  0  0  0  0  0  0  0  0  0  0  0
  -34.9628    6.5332  -41.4499 N   0  0  0  0  0  0  0  0  0  0  0  0
  -36.0367    7.4028  -40.9511 C   0  0  0  0  0  0  0  0  0  0  0  0
  -35.3535    5.8832  -42.7080 C   0  0  0  0  0  0  0  0  0  0  0  0
  -36.6587    5.1099  -42.5007 C   0  0  0  0  0  0  0  0  0  0  0  0
  -37.0290    4.3869  -43.7977 C   0  0  0  0  0  0  0  0  0  0  0  0
  -35.9480    3.4664  -44.1723 N   0  0  0  0  0  0  0  0  0  0  0  0
  -34.6958    4.1916  -44.4226 C   0  0  0  0  0  0  0  0  0  0  0  0
  -34.2558    4.9088  -43.1443 C   0  0  0  0  0  0  0  0  0  0  0  0
  -36.3899    2.5209  -45.5269 X   0  0  0  0  0  0  0  0  0  0  0  0
  1  2  1  0  0  0  0
  2  3  1  0  0  0  0
  2  4  1  0  0  0  0
  4  5  1  0  0  0  0
  4  9  1  0  0  0  0
  5  6  1  0  0  0  0
  6  7  1  0  0  0  0
  7  8  1  0  0  0  0
  7 10  1  0  0  0  0
  8  9  1  0  0  0  0
M  END
> <Index>
2580

> <PropertyFieldDistance>
nan

$$$$
6671704
BBcorina  12272117083D 1   1.00000     0.00000 
CORINA 4.3.0 0026  30.10.2019
 14 14  0  0  0  0  0  0  0  0999 V2000
  -35.4193   -0.6183  -48.5633 C   0  0  0  0  0  0  0  0  0  0  0  0
  -35.0631    0.7126  -47.8978 C   0  0  0  0  0  0  0  0  0  0  0  0
  -35.8960    0.9050  -46.7242 O   0  0  0  0  0  0  0  0  0  0  0  0
  -35.7076    2.0331  -46.0215 C   0  0  0  0  0  0  0  0  0  0  0  0
  -34.8744    2.8333  -46.3757 O   0  0  0  0  0  0  0  0  0  0  0  0
  -36.5353    2.3017  -44.7912 C   0  0  0  0  0  0  0  0  0  0  0  0
  -36.1406    3.5906  -44.2072 N   0  0  0  0  0  0  0  0  0  0  0  0
  -37.0339    3.9803  -43.2010 C   0  0  0  0  0  0  0  0  0  0  0  0
  -36.7506    5.4208  -42.7190 C   0  0  0  0  0  0  0  0  0  0  0  0
  -35.5328    5.4091  -41.8305 C   0  0  0  0  0  0  0  0  0  0  0  0
  -34.2771    5.6741  -42.5689 N   0  0  0  0  0  0  0  0  0  0  0  0
  -34.1954    4.9840  -43.8726 C   0  0  0  0  0  0  0  0  0  0  0  0
  -34.7222    3.5732  -43.7964 C   0  0  0  0  0  0  0  0  0  0  0  0
  -34.0141    7.3544  -42.7474 X   0  0  0  0  0  0  0  0  0  0  0  0
  1  2  1  0  0  0  0
  2  3  1  0  0  0  0
  3  4  1  0  0  0  0
  4  5  2  0  0  0  0
  4  6  1  0  0  0  0
  6  7  1  0  0  0  0
  7  8  1  0  0  0  0
  7 13  1  0  0  0  0
  8  9  1  0  0  0  0
  9 10  1  0  0  0  0
 10 11  1  0  0  0  0
 11 12  1  0  0  0  0
 11 14  1  0  0  0  0
 12 13  1  0  0  0  0
M  END
> <Index>
2620

> <PropertyFieldDistance>
nan

$$$$
4969672
BBcorina  12272117083D 1   1.00000     0.00000 
CORINA 4.3.0 0026  30.10.2019
 11 11  0  0  0  0  0  0  0  0999 V2000
  -30.5510    4.9943  -43.6795 C   0  0  0  0  0  0  0  0  0  0  0  0
  -31.9582    4.9494  -44.0988 N   0  0  0  0  0  0  0  0  0  0  0  0
  -32.8547    5.1913  -42.9603 C   0  0  0  0  0  0  0  0  0  0  0  0
  -34.3081    5.1368  -43.4352 C   0  0  0  0  0  0  0  0  0  0  0  0
  -35.2385    5.5067  -42.2767 C   0  0  0  0  0  0  0  0  0  0  0  0
  -36.6923    5.3914  -42.7433 C   0  0  0  0  0  0  0  0  0  0  0  0
  -36.9514    3.9683  -43.2428 C   0  0  0  0  0  0  0  0  0  0  0  0
  -36.0372    3.6631  -44.3508 N   0  0  0  0  0  0  0  0  0  0  0  0
  -36.3495    2.3570  -44.9464 C   0  0  0  0  0  0  0  0  0  0  0  0
  -34.6362    3.7210  -43.9146 C   0  0  0  0  0  0  0  0  0  0  0  0
  -32.2573    6.0628  -45.3617 X   0  0  0  0  0  0  0  0  0  0  0  0
  1  2  1  0  0  0  0
  2  3  1  0  0  0  0
  2 11  1  0  0  0  0
  3  4  1  0  0  0  0
  4  5  1  0  0  0  0
  4 10  1  0  0  0  0
  5  6  1  0  0  0  0
  6  7  1  0  0  0  0
  7  8  1  0  0  0  0
  8  9  1  0  0  0  0
  8 10  1  0  0  0  0
M  END
> <Index>
2640

> <PropertyFieldDistance>
nan

$$$$
1273278
BBcorina  12272117083D 1   1.00000     0.00000 
CORINA 4.3.0 0026  30.10.2019
 14 15  0  0  0  0  0  0  0  0999 V2000
  -37.5410   -0.4691  -47.5889 N   0  0  0  0  0  0  0  0  0  0  0  0
  -37.1184    0.4808  -46.6614 C   0  0  0  0  0  0  0  0  0  0  0  0
  -35.8319    0.4065  -46.1390 C   0  0  0  0  0  0  0  0  0  0  0  0
  -35.4239    1.3514  -45.2148 C   0  0  0  0  0  0  0  0  0  0  0  0
  -36.3210    2.3536  -44.8498 C   0  0  0  0  0  0  0  0  0  0  0  0
  -37.5864    2.3678  -45.4170 C   0  0  0  0  0  0  0  0  0  0  0  0
  -37.9441    1.4468  -46.2918 N   0  0  0  0  0  0  0  0  0  0  0  0
  -35.9489    3.3345  -43.9221 N   0  0  0  0  0  0  0  0  0  0  0  0
  -37.0462    4.2826  -43.6901 C   0  0  0  0  0  0  0  0  0  0  0  0
  -36.6582    5.2493  -42.5689 C   0  0  0  0  0  0  0  0  0  0  0  0
  -35.3851    6.0008  -42.9674 C   0  0  0  0  0  0  0  0  0  0  0  0
  -34.2717    4.9885  -43.2503 C   0  0  0  0  0  0  0  0  0  0  0  0
  -34.7287    4.0293  -44.3517 C   0  0  0  0  0  0  0  0  0  0  0  0
  -36.4819   -1.7213  -48.0733 X   0  0  0  0  0  0  0  0  0  0  0  0
  1  2  1  0  0  0  0
  1 14  1  0  0  0  0
  2  3  2  0  0  0  0
  2  7  1  0  0  0  0
  3  4  1  0  0  0  0
  4  5  2  0  0  0  0
  5  6  1  0  0  0  0
  5  8  1  0  0  0  0
  6  7  2  0  0  0  0
  8  9  1  0  0  0  0
  8 13  1  0  0  0  0
  9 10  1  0  0  0  0
 10 11  1  0  0  0  0
 11 12  1  0  0  0  0
 12 13  1  0  0  0  0
M  END
> <Index>
2653

> <PropertyFieldDistance>
nan

$$$$
8284042
BBcorina  12272117083D 1   1.00000     0.00000 
CORINA 4.3.0 0026  30.10.2019
 12 13  0  0  0  0  0  0  0  0999 V2000
  -36.3003    2.2651  -44.8309 C   0  0  0  0  0  0  0  0  0  0  0  0
  -36.0496    3.6589  -44.4406 N   0  0  0  0  0  0  0  0  0  0  0  0
  -37.1120    4.1566  -43.5399 C   0  0  0  0  0  0  0  0  0  0  0  0
  -36.3569    5.1766  -42.6573 C   0  0  0  0  0  0  0  0  0  0  0  0
  -34.9273    4.6747  -42.7097 C   0  0  0  0  0  0  0  0  0  0  0  0
  -33.8309    4.9558  -41.9210 C   0  0  0  0  0  0  0  0  0  0  0  0
  -32.6192    4.3397  -42.1709 C   0  0  0  0  0  0  0  0  0  0  0  0
  -32.5046    3.4438  -43.2266 C   0  0  0  0  0  0  0  0  0  0  0  0
  -31.2807    2.8216  -43.4835 N   0  0  0  0  0  0  0  0  0  0  0  0
  -33.6043    3.1621  -44.0221 C   0  0  0  0  0  0  0  0  0  0  0  0
  -34.8262    3.7799  -43.7697 C   0  0  0  0  0  0  0  0  0  0  0  0
  -29.9232    3.1681  -42.5031 X   0  0  0  0  0  0  0  0  0  0  0  0
  1  2  1  0  0  0  0
  2  3  1  0  0  0  0
  2 11  1  0  0  0  0
  3  4  1  0  0  0  0
  4  5  1  0  0  0  0
  5  6  2  0  0  0  0
  5 11  1  0  0  0  0
  6  7  1  0  0  0  0
  7  8  2  0  0  0  0
  8  9  1  0  0  0  0
  8 10  1  0  0  0  0
  9 12  1  0  0  0  0
 10 11  2  0  0  0  0
M  END
> <Index>
2659

> <PropertyFieldDistance>
nan

$$$$
1722830
BBcorina  12272117083D 1   1.00000     0.00000 
CORINA 4.3.0 0026  30.10.2019
 10 10  0  0  0  0  0  0  0  0999 V2000
  -30.5622    5.2607  -43.0243 C   0  0  0  0  0  0  0  0  0  0  0  0
  -31.9457    5.4559  -43.6478 C   0  0  0  0  0  0  0  0  0  0  0  0
  -32.9415    4.9181  -42.7752 O   0  0  0  0  0  0  0  0  0  0  0  0
  -34.2769    5.0496  -43.2665 C   0  0  0  0  0  0  0  0  0  0  0  0
  -35.2461    5.1686  -42.0870 C   0  0  0  0  0  0  0  0  0  0  0  0
  -36.6793    5.2476  -42.6202 C   0  0  0  0  0  0  0  0  0  0  0  0
  -36.9723    4.0086  -43.4695 C   0  0  0  0  0  0  0  0  0  0  0  0
  -36.0191    3.9414  -44.5845 N   0  0  0  0  0  0  0  0  0  0  0  0
  -34.6397    3.8164  -44.0970 C   0  0  0  0  0  0  0  0  0  0  0  0
  -36.4111    2.6622  -45.6494 X   0  0  0  0  0  0  0  0  0  0  0  0
  1  2  1  0  0  0  0
  2  3  1  0  0  0  0
  3  4  1  0  0  0  0
  4  5  1  0  0  0  0
  4  9  1  0  0  0  0
  5  6  1  0  0  0  0
  6  7  1  0  0  0  0
  7  8  1  0  0  0  0
  8  9  1  0  0  0  0
  8 10  1  0  0  0  0
M  END
> <Index>
2667

> <PropertyFieldDistance>
nan

$$$$
4836890
BBcorina  12272117083D 1   1.00000     0.00000 
CORINA 4.3.0 0026  30.10.2019
 14 14  0  0  0  0  0  0  0  0999 V2000
  -31.4550    9.8141  -40.1807 C   0  0  0  0  0  0  0  0  0  0  0  0
  -31.9981    9.1055  -41.3471 N   0  0  0  0  0  0  0  0  0  0  0  0
  -33.2182    8.3675  -40.9939 C   0  0  0  0  0  0  0  0  0  0  0  0
  -33.7530    7.6441  -42.2314 C   0  0  0  0  0  0  0  0  0  0  0  0
  -34.9731    6.9062  -41.8780 N   0  0  0  0  0  0  0  0  0  0  0  0
  -36.0587    7.8269  -41.5151 C   0  0  0  0  0  0  0  0  0  0  0  0
  -35.3832    6.0133  -42.9701 C   0  0  0  0  0  0  0  0  0  0  0  0
  -36.6553    5.2625  -42.5668 C   0  0  0  0  0  0  0  0  0  0  0  0
  -37.0441    4.2899  -43.6826 C   0  0  0  0  0  0  0  0  0  0  0  0
  -35.9452    3.3417  -43.9110 N   0  0  0  0  0  0  0  0  0  0  0  0
  -36.3352    2.3075  -44.8787 C   0  0  0  0  0  0  0  0  0  0  0  0
  -34.7260    4.0355  -44.3451 C   0  0  0  0  0  0  0  0  0  0  0  0
  -34.2689    5.0006  -43.2489 C   0  0  0  0  0  0  0  0  0  0  0  0
  -32.2882   10.1861  -42.6404 X   0  0  0  0  0  0  0  0  0  0  0  0
  1  2  1  0  0  0  0
  2  3  1  0  0  0  0
  2 14  1  0  0  0  0
  3  4  1  0  0  0  0
  4  5  1  0  0  0  0
  5  6  1  0  0  0  0
  5  7  1  0  0  0  0
  7  8  1  0  0  0  0
  7 13  1  0  0  0  0
  8  9  1  0  0  0  0
  9 10  1  0  0  0  0
 10 11  1  0  0  0  0
 10 12  1  0  0  0  0
 12 13  1  0  0  0  0
M  END
> <Index>
2677

> <PropertyFieldDistance>
nan

$$$$
550092
BBcorina  12272117083D 1   1.00000     0.00000 
CORINA 4.3.0 0026  30.10.2019
 13 14  0  0  0  0  0  0  0  0999 V2000
  -34.4285    5.3403  -39.0710 C   0  0  0  0  0  0  0  0  0  0  0  0
  -34.5786    6.4693  -39.9924 N   0  0  0  0  0  0  0  0  0  0  0  0
  -34.3982    7.7819  -39.7093 C   0  0  0  0  0  0  0  0  0  0  0  0
  -34.6277    8.4509  -40.8063 N   0  0  0  0  0  0  0  0  0  0  0  0
  -34.9480    7.6381  -41.7500 N   0  0  0  0  0  0  0  0  0  0  0  0
  -34.9316    6.4133  -41.2994 C   0  0  0  0  0  0  0  0  0  0  0  0
  -35.2462    5.1676  -42.0870 C   0  0  0  0  0  0  0  0  0  0  0  0
  -36.6793    5.2476  -42.6202 C   0  0  0  0  0  0  0  0  0  0  0  0
  -36.9723    4.0086  -43.4695 C   0  0  0  0  0  0  0  0  0  0  0  0
  -36.0191    3.9414  -44.5845 N   0  0  0  0  0  0  0  0  0  0  0  0
  -34.6396    3.8163  -44.0970 C   0  0  0  0  0  0  0  0  0  0  0  0
  -34.2770    5.0496  -43.2665 C   0  0  0  0  0  0  0  0  0  0  0  0
  -36.4110    2.6621  -45.6494 X   0  0  0  0  0  0  0  0  0  0  0  0
  1  2  1  0  0  0  0
  2  3  1  0  0  0  0
  2  6  1  0  0  0  0
  3  4  2  0  0  0  0
  4  5  1  0  0  0  0
  5  6  2  0  0  0  0
  6  7  1  0  0  0  0
  7  8  1  0  0  0  0
  7 12  1  0  0  0  0
  8  9  1  0  0  0  0
  9 10  1  0  0  0  0
 10 11  1  0  0  0  0
 10 13  1  0  0  0  0
 11 12  1  0  0  0  0
M  END
> <Index>
2687

> <PropertyFieldDistance>
nan

$$$$
1027528
BBcorina  12272117083D 1   1.00000     0.00000 
CORINA 4.3.0 0026  30.10.2019
 11 12  0  0  0  0  0  0  0  0999 V2000
  -35.2497    5.7278  -42.7076 N   0  0  0  0  0  0  0  0  0  0  0  0
  -36.5085    5.0811  -42.3117 C   0  0  0  0  0  0  0  0  0  0  0  0
  -37.0937    4.3323  -43.5113 C   0  0  0  0  0  0  0  0  0  0  0  0
  -36.1213    3.3385  -43.9870 N   0  0  0  0  0  0  0  0  0  0  0  0
  -36.6764    2.5459  -45.0923 C   0  0  0  0  0  0  0  0  0  0  0  0
  -35.5665    1.7022  -45.7226 C   0  0  0  0  0  0  0  0  0  0  0  0
  -35.9669    0.7145  -46.8204 C   0  0  0  0  0  0  0  0  0  0  0  0
  -35.2020    1.9898  -47.1804 C   0  0  0  0  0  0  0  0  0  0  0  0
  -34.8625    3.9851  -44.3830 C   0  0  0  0  0  0  0  0  0  0  0  0
  -34.2772    4.7338  -43.1833 C   0  0  0  0  0  0  0  0  0  0  0  0
  -34.6035    6.6503  -41.4211 X   0  0  0  0  0  0  0  0  0  0  0  0
  1  2  1  0  0  0  0
  1 10  1  0  0  0  0
  1 11  1  0  0  0  0
  2  3  1  0  0  0  0
  3  4  1  0  0  0  0
  4  5  1  0  0  0  0
  4  9  1  0  0  0  0
  5  6  1  0  0  0  0
  6  7  1  0  0  0  0
  6  8  1  0  0  0  0
  7  8  1  0  0  0  0
  9 10  1  0  0  0  0
M  END
> <Index>
2699

> <PropertyFieldDistance>
nan

$$$$
13947200
BBcorina  12272117083D 1   1.00000     0.00000 
CORINA 4.3.0 0026  30.10.2019
 10 10  0  0  0  0  0  0  0  0999 V2000
  -33.4343    5.4355  -44.8769 O   0  0  0  0  0  0  0  0  0  0  0  0
  -34.2205    5.1580  -43.7163 C   0  0  0  0  0  0  0  0  0  0  0  0
  -35.3247    4.1614  -44.0745 C   0  0  0  0  0  0  0  0  0  0  0  0
  -36.2412    3.9595  -42.8662 C   0  0  0  0  0  0  0  0  0  0  0  0
  -37.3454    2.9629  -43.2245 C   0  0  0  0  0  0  0  0  0  0  0  0
  -36.7167    1.6244  -43.6169 C   0  0  0  0  0  0  0  0  0  0  0  0
  -35.8002    1.8263  -44.8253 C   0  0  0  0  0  0  0  0  0  0  0  0
  -34.6959    2.8229  -44.4670 C   0  0  0  0  0  0  0  0  0  0  0  0
  -35.9328    1.1023  -42.4896 N   0  0  0  0  0  0  0  0  0  0  0  0
  -35.9096   -0.6075  -42.4990 X   0  0  0  0  0  0  0  0  0  0  0  0
  1  2  1  0  0  0  0
  2  3  1  0  0  0  0
  3  4  1  0  0  0  0
  3  8  1  0  0  0  0
  4  5  1  0  0  0  0
  5  6  1  0  0  0  0
  6  7  1  0  0  0  0
  6  9  1  0  0  0  0
  7  8  1  0  0  0  0
  9 10  1  0  0  0  0
M  END
> <Index>
2700

> <PropertyFieldDistance>
nan

$$$$
7866786
BBcorina  12272117083D 1   1.00000     0.00000 
CORINA 4.3.0 0026  30.10.2019
  8  8  0  0  0  0  0  0  0  0999 V2000
  -36.3238    2.6625  -45.3242 N   0  0  0  0  0  0  0  0  0  0  0  0
  -35.9479    3.4664  -44.1723 N   0  0  0  0  0  0  0  0  0  0  0  0
  -37.0290    4.3869  -43.7977 C   0  0  0  0  0  0  0  0  0  0  0  0
  -36.6586    5.1099  -42.5008 C   0  0  0  0  0  0  0  0  0  0  0  0
  -35.3534    5.8832  -42.7080 C   0  0  0  0  0  0  0  0  0  0  0  0
  -34.2559    4.9088  -43.1443 C   0  0  0  0  0  0  0  0  0  0  0  0
  -34.6959    4.1916  -44.4226 C   0  0  0  0  0  0  0  0  0  0  0  0
  -35.1862    2.8350  -46.5892 X   0  0  0  0  0  0  0  0  0  0  0  0
  1  2  1  0  0  0  0
  1  8  1  0  0  0  0
  2  3  1  0  0  0  0
  2  7  1  0  0  0  0
  3  4  1  0  0  0  0
  4  5  1  0  0  0  0
  5  6  1  0  0  0  0
  6  7  1  0  0  0  0
M  END
> <Index>
2701

> <PropertyFieldDistance>
nan

$$$$
569474
BBcorina  12272117083D 1   1.00000     0.00000 
CORINA 4.3.0 0026  30.10.2019
 14 16  0  0  0  0  0  0  0  0999 V2000
  -36.6218    4.2288  -43.3133 C   0  0  0  0  0  0  0  0  0  0  0  0
  -36.0173    3.5927  -44.4913 N   0  0  0  0  0  0  0  0  0  0  0  0
  -36.3933    2.1751  -44.5753 C   0  0  0  0  0  0  0  0  0  0  0  0
  -36.1059    1.6538  -45.9846 C   0  0  0  0  0  0  0  0  0  0  0  0
  -34.5960    1.6561  -46.2312 C   0  0  0  0  0  0  0  0  0  0  0  0
  -34.3086    1.1347  -47.6407 C   0  0  0  0  0  0  0  0  0  0  0  0
  -34.8452   -0.2916  -47.7762 C   0  0  0  0  0  0  0  0  0  0  0  0
  -36.3553   -0.2939  -47.5296 C   0  0  0  0  0  0  0  0  0  0  0  0
  -37.0412    0.6088  -48.5569 C   0  0  0  0  0  0  0  0  0  0  0  0
  -36.5045    2.0352  -48.4215 C   0  0  0  0  0  0  0  0  0  0  0  0
  -34.9945    2.0375  -48.6680 C   0  0  0  0  0  0  0  0  0  0  0  0
  -36.7919    2.5565  -47.0121 C   0  0  0  0  0  0  0  0  0  0  0  0
  -36.6427    0.2274  -46.1201 C   0  0  0  0  0  0  0  0  0  0  0  0
  -34.3173    3.7762  -44.4822 X   0  0  0  0  0  0  0  0  0  0  0  0
  1  2  1  0  0  0  0
  2  3  1  0  0  0  0
  2 14  1  0  0  0  0
  3  4  1  0  0  0  0
  4  5  1  0  0  0  0
  4 12  1  0  0  0  0
  4 13  1  0  0  0  0
  5  6  1  0  0  0  0
  6  7  1  0  0  0  0
  6 11  1  0  0  0  0
  7  8  1  0  0  0  0
  8  9  1  0  0  0  0
  8 13  1  0  0  0  0
  9 10  1  0  0  0  0
 10 11  1  0  0  0  0
 10 12  1  0  0  0  0
M  END
> <Index>
2722

> <PropertyFieldDistance>
nan

$$$$
587016
BBcorina  12272117083D 1   1.00000     0.00000 
CORINA 4.3.0 0026  30.10.2019
  8  8  0  0  0  0  0  0  0  0999 V2000
  -36.0173    3.5927  -44.4913 N   0  0  0  0  0  0  0  0  0  0  0  0
  -36.3933    2.1751  -44.5752 C   0  0  0  0  0  0  0  0  0  0  0  0
  -36.1059    1.6538  -45.9847 C   0  0  0  0  0  0  0  0  0  0  0  0
  -36.3938    0.1440  -46.0572 C   0  0  0  0  0  0  0  0  0  0  0  0
  -37.5009   -0.0431  -47.1151 C   0  0  0  0  0  0  0  0  0  0  0  0
  -37.3805    1.2104  -48.0169 C   0  0  0  0  0  0  0  0  0  0  0  0
  -37.0471    2.3324  -47.0013 C   0  0  0  0  0  0  0  0  0  0  0  0
  -36.3230    4.2163  -42.9287 X   0  0  0  0  0  0  0  0  0  0  0  0
  1  2  1  0  0  0  0
  1  8  1  0  0  0  0
  2  3  1  0  0  0  0
  3  4  1  0  0  0  0
  3  7  1  0  0  0  0
  4  5  1  0  0  0  0
  5  6  1  0  0  0  0
  6  7  1  0  0  0  0
M  END
> <Index>
2759

> <PropertyFieldDistance>
nan

$$$$
10431354
BBcorina  12272117083D 1   1.00000     0.00000 
CORINA 4.3.0 0026  30.10.2019
  9 10  0  0  0  0  0  0  0  0999 V2000
  -34.8567    4.3265  -39.1411 O   0  0  0  0  0  0  0  0  0  0  0  0
  -35.4560    5.1618  -40.1337 C   0  0  0  0  0  0  0  0  0  0  0  0
  -35.6879    4.3510  -41.4102 C   0  0  0  0  0  0  0  0  0  0  0  0
  -36.4313    5.0387  -42.5571 C   0  0  0  0  0  0  0  0  0  0  0  0
  -37.0719    4.1506  -43.6452 C   0  0  0  0  0  0  0  0  0  0  0  0
  -35.9864    3.9297  -44.6352 N   0  0  0  0  0  0  0  0  0  0  0  0
  -34.7681    3.7442  -43.8054 C   0  0  0  0  0  0  0  0  0  0  0  0
  -34.9156    4.7713  -42.6625 C   0  0  0  0  0  0  0  0  0  0  0  0
  -36.2972    2.5429  -45.5862 X   0  0  0  0  0  0  0  0  0  0  0  0
  1  2  1  0  0  0  0
  2  3  1  0  0  0  0
  3  4  1  0  0  0  0
  3  8  1  0  0  0  0
  4  5  1  0  0  0  0
  4  8  1  0  0  0  0
  5  6  1  0  0  0  0
  6  7  1  0  0  0  0
  6  9  1  0  0  0  0
  7  8  1  0  0  0  0
M  END
> <Index>
2778

> <PropertyFieldDistance>
nan

$$$$
886576
BBcorina  12272117083D 1   1.00000     0.00000 
CORINA 4.3.0 0026  30.10.2019
 16 17  0  0  0  0  0  0  0  0999 V2000
  -36.1639    2.3246  -45.0436 C   0  0  0  0  0  0  0  0  0  0  0  0
  -36.1135    3.4185  -44.0645 N   0  0  0  0  0  0  0  0  0  0  0  0
  -37.3497    4.2319  -44.1133 C   0  0  0  0  0  0  0  0  0  0  0  0
  -37.2186    5.5477  -43.3300 C   0  0  0  0  0  0  0  0  0  0  0  0
  -36.4955    5.3586  -42.0203 C   0  0  0  0  0  0  0  0  0  0  0  0
  -35.0556    5.6183  -42.2375 N   0  0  0  0  0  0  0  0  0  0  0  0
  -34.3622    4.5456  -42.8109 C   0  0  0  0  0  0  0  0  0  0  0  0
  -34.8997    4.1902  -44.2118 C   0  0  0  0  0  0  0  0  0  0  0  0
  -34.4378    6.0400  -41.0540 C   0  0  0  0  0  0  0  0  0  0  0  0
  -34.9268    7.1459  -40.3715 C   0  0  0  0  0  0  0  0  0  0  0  0
  -34.3177    7.5616  -39.2039 C   0  0  0  0  0  0  0  0  0  0  0  0
  -33.2164    6.8735  -38.7124 C   0  0  0  0  0  0  0  0  0  0  0  0
  -32.5990    7.2946  -37.5284 N   0  0  0  0  0  0  0  0  0  0  0  0
  -32.7237    5.7710  -39.3981 C   0  0  0  0  0  0  0  0  0  0  0  0
  -33.3362    5.3521  -40.5627 C   0  0  0  0  0  0  0  0  0  0  0  0
  -31.2428    6.4471  -36.9231 X   0  0  0  0  0  0  0  0  0  0  0  0
  1  2  1  0  0  0  0
  2  3  1  0  0  0  0
  2  8  1  0  0  0  0
  3  4  1  0  0  0  0
  4  5  1  0  0  0  0
  5  6  1  0  0  0  0
  6  7  1  0  0  0  0
  6  9  1  0  0  0  0
  7  8  1  0  0  0  0
  9 10  2  0  0  0  0
  9 15  1  0  0  0  0
 10 11  1  0  0  0  0
 11 12  2  0  0  0  0
 12 13  1  0  0  0  0
 12 14  1  0  0  0  0
 13 16  1  0  0  0  0
 14 15  2  0  0  0  0
M  END
> <Index>
2780

> <PropertyFieldDistance>
nan

$$$$
593460
BBcorina  12272117083D 1   1.00000     0.00000 
CORINA 4.3.0 0026  30.10.2019
 10 10  0  0  0  0  0  0  0  0999 V2000
  -36.0173    3.5926  -44.4913 N   0  0  0  0  0  0  0  0  0  0  0  0
  -36.3933    2.1752  -44.5753 C   0  0  0  0  0  0  0  0  0  0  0  0
  -36.1059    1.6538  -45.9847 C   0  0  0  0  0  0  0  0  0  0  0  0
  -36.4976    0.1773  -46.0721 C   0  0  0  0  0  0  0  0  0  0  0  0
  -36.0958   -0.3767  -47.4405 C   0  0  0  0  0  0  0  0  0  0  0  0
  -36.4875   -1.8532  -47.5279 C   0  0  0  0  0  0  0  0  0  0  0  0
  -38.0003   -1.9911  -47.3460 C   0  0  0  0  0  0  0  0  0  0  0  0
  -38.4022   -1.4369  -45.9776 C   0  0  0  0  0  0  0  0  0  0  0  0
  -38.0104    0.0394  -45.8902 C   0  0  0  0  0  0  0  0  0  0  0  0
  -36.3230    4.2163  -42.9288 X   0  0  0  0  0  0  0  0  0  0  0  0
  1  2  1  0  0  0  0
  1 10  1  0  0  0  0
  2  3  1  0  0  0  0
  3  4  1  0  0  0  0
  4  5  1  0  0  0  0
  4  9  1  0  0  0  0
  5  6  1  0  0  0  0
  6  7  1  0  0  0  0
  7  8  1  0  0  0  0
  8  9  1  0  0  0  0
M  END
> <Index>
2785

> <PropertyFieldDistance>
nan

$$$$
596158
BBcorina  12272117083D 1   1.00000     0.00000 
CORINA 4.3.0 0026  30.10.2019
  9  9  0  0  0  0  0  0  0  0999 V2000
  -36.3248    5.6502  -43.8401 C   0  0  0  0  0  0  0  0  0  0  0  0
  -36.3272    4.1208  -43.8821 C   0  0  0  0  0  0  0  0  0  0  0  0
  -35.7072    3.6458  -45.1977 C   0  0  0  0  0  0  0  0  0  0  0  0
  -35.7096    2.1164  -45.2398 C   0  0  0  0  0  0  0  0  0  0  0  0
  -34.8932    1.5726  -44.0656 C   0  0  0  0  0  0  0  0  0  0  0  0
  -35.5132    2.0476  -42.7500 C   0  0  0  0  0  0  0  0  0  0  0  0
  -35.5108    3.5770  -42.7079 C   0  0  0  0  0  0  0  0  0  0  0  0
  -34.7293    1.5255  -41.6226 N   0  0  0  0  0  0  0  0  0  0  0  0
  -33.1414    2.1600  -41.6344 X   0  0  0  0  0  0  0  0  0  0  0  0
  1  2  1  0  0  0  0
  2  3  1  0  0  0  0
  2  7  1  0  0  0  0
  3  4  1  0  0  0  0
  4  5  1  0  0  0  0
  5  6  1  0  0  0  0
  6  7  1  0  0  0  0
  6  8  1  0  0  0  0
  8  9  1  0  0  0  0
M  END
> <Index>
2793

> <PropertyFieldDistance>
nan

$$$$
4929922
BBcorina  12272117083D 1   1.00000     0.00000 
CORINA 4.3.0 0026  30.10.2019
 14 14  0  0  0  0  0  0  0  0999 V2000
  -35.8051   -0.9635  -44.7793 C   0  0  0  0  0  0  0  0  0  0  0  0
  -35.4286    0.2376  -45.6490 C   0  0  0  0  0  0  0  0  0  0  0  0
  -35.2467    1.4175  -44.7998 N   0  0  0  0  0  0  0  0  0  0  0  0
  -33.9559    1.6611  -44.1511 C   0  0  0  0  0  0  0  0  0  0  0  0
  -32.9057    1.9921  -45.2134 C   0  0  0  0  0  0  0  0  0  0  0  0
  -36.2667    2.2789  -44.6153 C   0  0  0  0  0  0  0  0  0  0  0  0
  -37.4125    1.9094  -44.7853 O   0  0  0  0  0  0  0  0  0  0  0  0
  -36.0166    3.5495  -44.2424 N   0  0  0  0  0  0  0  0  0  0  0  0
  -37.0874    4.4037  -43.7065 C   0  0  0  0  0  0  0  0  0  0  0  0
  -36.6071    5.0157  -42.3862 C   0  0  0  0  0  0  0  0  0  0  0  0
  -35.3220    5.6934  -42.6033 N   0  0  0  0  0  0  0  0  0  0  0  0
  -34.2808    4.7423  -43.0145 C   0  0  0  0  0  0  0  0  0  0  0  0
  -34.6644    4.1171  -44.3547 C   0  0  0  0  0  0  0  0  0  0  0  0
  -34.8436    6.5610  -41.2095 X   0  0  0  0  0  0  0  0  0  0  0  0
  1  2  1  0  0  0  0
  2  3  1  0  0  0  0
  3  4  1  0  0  0  0
  3  6  1  0  0  0  0
  4  5  1  0  0  0  0
  6  7  2  0  0  0  0
  6  8  1  0  0  0  0
  8  9  1  0  0  0  0
  8 13  1  0  0  0  0
  9 10  1  0  0  0  0
 10 11  1  0  0  0  0
 11 12  1  0  0  0  0
 11 14  1  0  0  0  0
 12 13  1  0  0  0  0
M  END
> <Index>
2838

> <PropertyFieldDistance>
nan

$$$$
3048356
BBcorina  12272117083D 1   1.00000     0.00000 
CORINA 4.3.0 0026  30.10.2019
  6  6  0  0  0  0  0  0  0  0999 V2000
  -35.4342    3.9808  -45.3789 C   0  0  0  0  0  0  0  0  0  0  0  0
  -35.2802    3.7760  -43.8705 C   0  0  0  0  0  0  0  0  0  0  0  0
  -36.5593    3.6470  -43.0409 C   0  0  0  0  0  0  0  0  0  0  0  0
  -35.6863    2.4169  -43.2970 C   0  0  0  0  0  0  0  0  0  0  0  0
  -34.9024    1.8948  -42.1697 N   0  0  0  0  0  0  0  0  0  0  0  0
  -34.8792    0.1850  -42.1791 X   0  0  0  0  0  0  0  0  0  0  0  0
  1  2  1  0  0  0  0
  2  3  1  0  0  0  0
  2  4  1  0  0  0  0
  3  4  1  0  0  0  0
  4  5  1  0  0  0  0
  5  6  1  0  0  0  0
M  END
> <Index>
2852

> <PropertyFieldDistance>
nan

$$$$
654222
BBcorina  12272117083D 1   1.00000     0.00000 
CORINA 4.3.0 0026  30.10.2019
  9  9  0  0  0  0  0  0  0  0999 V2000
  -36.4492    4.1044  -41.3787 C   0  0  0  0  0  0  0  0  0  0  0  0
  -36.6101    5.1169  -42.5144 C   0  0  0  0  0  0  0  0  0  0  0  0
  -37.6832    6.1404  -42.1381 C   0  0  0  0  0  0  0  0  0  0  0  0
  -37.0250    4.3873  -43.7948 C   0  0  0  0  0  0  0  0  0  0  0  0
  -35.9555    3.4606  -44.1930 N   0  0  0  0  0  0  0  0  0  0  0  0
  -34.6941    4.1836  -44.4110 C   0  0  0  0  0  0  0  0  0  0  0  0
  -34.3026    4.9152  -43.1244 C   0  0  0  0  0  0  0  0  0  0  0  0
  -35.3667    5.7881  -42.7357 O   0  0  0  0  0  0  0  0  0  0  0  0
  -36.4009    2.5722  -45.5846 X   0  0  0  0  0  0  0  0  0  0  0  0
  1  2  1  0  0  0  0
  2  3  1  0  0  0  0
  2  4  1  0  0  0  0
  2  8  1  0  0  0  0
  4  5  1  0  0  0  0
  5  6  1  0  0  0  0
  5  9  1  0  0  0  0
  6  7  1  0  0  0  0
  7  8  1  0  0  0  0
M  END
> <Index>
2857

> <PropertyFieldDistance>
nan

$$$$
769860
BBcorina  12272117083D 1   1.00000     0.00000 
CORINA 4.3.0 0026  30.10.2019
 13 13  0  0  0  0  0  0  0  0999 V2000
  -37.7069    9.5039  -40.8200 C   0  0  0  0  0  0  0  0  0  0  0  0
  -37.1929    8.0868  -41.0816 C   0  0  0  0  0  0  0  0  0  0  0  0
  -35.3811    8.1073  -41.1693 S   0  0  0  0  0  0  0  0  0  0  0  0
  -34.8234    8.3938  -39.8941 O   0  0  0  0  0  0  0  0  0  0  0  0
  -34.9460    8.7994  -42.3316 O   0  0  0  0  0  0  0  0  0  0  0  0
  -34.9633    6.5301  -41.4528 N   0  0  0  0  0  0  0  0  0  0  0  0
  -35.3535    5.8833  -42.7079 C   0  0  0  0  0  0  0  0  0  0  0  0
  -36.6585    5.1099  -42.5008 C   0  0  0  0  0  0  0  0  0  0  0  0
  -37.0291    4.3869  -43.7977 C   0  0  0  0  0  0  0  0  0  0  0  0
  -35.9480    3.4664  -44.1723 N   0  0  0  0  0  0  0  0  0  0  0  0
  -34.6958    4.1916  -44.4226 C   0  0  0  0  0  0  0  0  0  0  0  0
  -34.2559    4.9088  -43.1442 C   0  0  0  0  0  0  0  0  0  0  0  0
  -36.3899    2.5211  -45.5270 X   0  0  0  0  0  0  0  0  0  0  0  0
  1  2  1  0  0  0  0
  2  3  1  0  0  0  0
  3  4  2  0  0  0  0
  3  5  2  0  0  0  0
  3  6  1  0  0  0  0
  6  7  1  0  0  0  0
  7  8  1  0  0  0  0
  7 12  1  0  0  0  0
  8  9  1  0  0  0  0
  9 10  1  0  0  0  0
 10 11  1  0  0  0  0
 10 13  1  0  0  0  0
 11 12  1  0  0  0  0
M  END
> <Index>
2865

> <PropertyFieldDistance>
nan

$$$$
7881356
BBcorina  12272117083D 1   1.00000     0.00000 
CORINA 4.3.0 0026  30.10.2019
 11 11  0  0  0  0  0  0  0  0999 V2000
  -31.6750    4.6871  -44.0510 N   0  0  0  0  0  0  0  0  0  0  0  0
  -32.7230    5.8256  -43.4612 S   0  0  0  0  0  0  0  0  0  0  0  0
  -32.8988    6.7328  -44.5407 O   0  0  0  0  0  0  0  0  0  0  0  0
  -32.1321    6.2465  -42.2394 O   0  0  0  0  0  0  0  0  0  0  0  0
  -34.2559    4.9088  -43.1443 C   0  0  0  0  0  0  0  0  0  0  0  0
  -35.3534    5.8832  -42.7080 C   0  0  0  0  0  0  0  0  0  0  0  0
  -36.6587    5.1099  -42.5008 C   0  0  0  0  0  0  0  0  0  0  0  0
  -37.0290    4.3869  -43.7977 C   0  0  0  0  0  0  0  0  0  0  0  0
  -35.9479    3.4664  -44.1723 N   0  0  0  0  0  0  0  0  0  0  0  0
  -34.6959    4.1916  -44.4226 C   0  0  0  0  0  0  0  0  0  0  0  0
  -36.3899    2.5210  -45.5270 X   0  0  0  0  0  0  0  0  0  0  0  0
  1  2  1  0  0  0  0
  2  3  2  0  0  0  0
  2  4  2  0  0  0  0
  2  5  1  0  0  0  0
  5  6  1  0  0  0  0
  5 10  1  0  0  0  0
  6  7  1  0  0  0  0
  7  8  1  0  0  0  0
  8  9  1  0  0  0  0
  9 10  1  0  0  0  0
  9 11  1  0  0  0  0
M  END
> <Index>
2867

> <PropertyFieldDistance>
nan

$$$$
636998
BBcorina  12272117083D 1   1.00000     0.00000 
CORINA 4.3.0 0026  30.10.2019
  9  9  0  0  0  0  0  0  0  0999 V2000
  -31.8353    4.6970  -43.7261 C   0  0  0  0  0  0  0  0  0  0  0  0
  -32.9630    5.6821  -43.4116 C   0  0  0  0  0  0  0  0  0  0  0  0
  -34.2558    4.9088  -43.1443 C   0  0  0  0  0  0  0  0  0  0  0  0
  -35.3535    5.8832  -42.7080 C   0  0  0  0  0  0  0  0  0  0  0  0
  -36.6587    5.1099  -42.5007 C   0  0  0  0  0  0  0  0  0  0  0  0
  -37.0290    4.3869  -43.7977 C   0  0  0  0  0  0  0  0  0  0  0  0
  -35.9479    3.4664  -44.1723 N   0  0  0  0  0  0  0  0  0  0  0  0
  -34.6959    4.1916  -44.4226 C   0  0  0  0  0  0  0  0  0  0  0  0
  -36.3899    2.5210  -45.5269 X   0  0  0  0  0  0  0  0  0  0  0  0
  1  2  1  0  0  0  0
  2  3  1  0  0  0  0
  3  4  1  0  0  0  0
  3  8  1  0  0  0  0
  4  5  1  0  0  0  0
  5  6  1  0  0  0  0
  6  7  1  0  0  0  0
  7  8  1  0  0  0  0
  7  9  1  0  0  0  0
M  END
> <Index>
2874

> <PropertyFieldDistance>
nan

$$$$
637020
BBcorina  12272117083D 1   1.00000     0.00000 
CORINA 4.3.0 0026  30.10.2019
 14 15  0  0  0  0  0  0  0  0999 V2000
  -35.2281    5.5646  -42.5747 N   0  0  0  0  0  0  0  0  0  0  0  0
  -36.6592    5.4299  -42.8779 C   0  0  0  0  0  0  0  0  0  0  0  0
  -37.0153    3.9441  -42.9956 C   0  0  0  0  0  0  0  0  0  0  0  0
  -36.1109    3.3231  -43.9752 N   0  0  0  0  0  0  0  0  0  0  0  0
  -34.6637    3.5297  -43.8148 C   0  0  0  0  0  0  0  0  0  0  0  0
  -34.4000    5.0319  -43.6648 C   0  0  0  0  0  0  0  0  0  0  0  0
  -36.5956    2.5839  -44.9926 C   0  0  0  0  0  0  0  0  0  0  0  0
  -37.7906    2.3681  -45.0727 O   0  0  0  0  0  0  0  0  0  0  0  0
  -35.6829    2.0394  -46.0032 C   0  0  0  0  0  0  0  0  0  0  0  0
  -36.0481    1.3930  -47.1491 C   0  0  0  0  0  0  0  0  0  0  0  0
  -34.8609    1.0491  -47.8144 C   0  0  0  0  0  0  0  0  0  0  0  0
  -33.8359    1.4883  -47.0512 C   0  0  0  0  0  0  0  0  0  0  0  0
  -34.3352    2.0844  -45.9607 O   0  0  0  0  0  0  0  0  0  0  0  0
  -34.8237    7.1913  -42.2369 X   0  0  0  0  0  0  0  0  0  0  0  0
  1  2  1  0  0  0  0
  1  6  1  0  0  0  0
  1 14  1  0  0  0  0
  2  3  1  0  0  0  0
  3  4  1  0  0  0  0
  4  5  1  0  0  0  0
  4  7  1  0  0  0  0
  5  6  1  0  0  0  0
  7  8  2  0  0  0  0
  7  9  1  0  0  0  0
  9 10  2  0  0  0  0
  9 13  1  0  0  0  0
 10 11  1  0  0  0  0
 11 12  2  0  0  0  0
 12 13  1  0  0  0  0
M  END
> <Index>
2875

> <PropertyFieldDistance>
nan

$$$$
6584718
BBcorina  12272117083D 1   1.00000     0.00000 
CORINA 4.3.0 0026  30.10.2019
 12 12  0  0  0  0  0  0  0  0999 V2000
  -38.3921   -0.1620  -46.1214 C   0  0  0  0  0  0  0  0  0  0  0  0
  -37.3604    0.8620  -46.3041 N   0  0  0  0  0  0  0  0  0  0  0  0
  -36.9264    1.5774  -45.2475 C   0  0  0  0  0  0  0  0  0  0  0  0
  -37.3901    1.3737  -44.1455 O   0  0  0  0  0  0  0  0  0  0  0  0
  -35.8696    2.6350  -45.4365 C   0  0  0  0  0  0  0  0  0  0  0  0
  -35.6843    3.3723  -44.1796 N   0  0  0  0  0  0  0  0  0  0  0  0
  -36.8869    4.1460  -43.8407 C   0  0  0  0  0  0  0  0  0  0  0  0
  -36.6834    4.8342  -42.4888 C   0  0  0  0  0  0  0  0  0  0  0  0
  -35.5022    5.7057  -42.5586 N   0  0  0  0  0  0  0  0  0  0  0  0
  -34.2997    4.9320  -42.8976 C   0  0  0  0  0  0  0  0  0  0  0  0
  -34.5032    4.2439  -44.2495 C   0  0  0  0  0  0  0  0  0  0  0  0
  -35.2866    6.5640  -41.0955 X   0  0  0  0  0  0  0  0  0  0  0  0
  1  2  1  0  0  0  0
  2  3  1  0  0  0  0
  3  4  2  0  0  0  0
  3  5  1  0  0  0  0
  5  6  1  0  0  0  0
  6  7  1  0  0  0  0
  6 11  1  0  0  0  0
  7  8  1  0  0  0  0
  8  9  1  0  0  0  0
  9 10  1  0  0  0  0
  9 12  1  0  0  0  0
 10 11  1  0  0  0  0
M  END
> <Index>
2898

> <PropertyFieldDistance>
nan

$$$$
903388
BBcorina  12272117083D 1   1.00000     0.00000 
CORINA 4.3.0 0026  30.10.2019
 12 13  0  0  0  0  0  0  0  0999 V2000
  -34.7850    5.9896  -41.0821 C   0  0  0  0  0  0  0  0  0  0  0  0
  -35.3429    5.7831  -42.4918 C   0  0  0  0  0  0  0  0  0  0  0  0
  -36.6320    4.9564  -42.4140 C   0  0  0  0  0  0  0  0  0  0  0  0
  -36.9829    4.5011  -43.8360 C   0  0  0  0  0  0  0  0  0  0  0  0
  -35.9772    3.5359  -44.2844 N   0  0  0  0  0  0  0  0  0  0  0  0
  -34.6720    4.0115  -44.1692 C   0  0  0  0  0  0  0  0  0  0  0  0
  -33.6858    3.3901  -44.9371 C   0  0  0  0  0  0  0  0  0  0  0  0
  -32.3750    3.8101  -44.8622 C   0  0  0  0  0  0  0  0  0  0  0  0
  -32.0311    4.8530  -44.0219 C   0  0  0  0  0  0  0  0  0  0  0  0
  -33.0028    5.4734  -43.2618 C   0  0  0  0  0  0  0  0  0  0  0  0
  -34.3231    5.0588  -43.3341 C   0  0  0  0  0  0  0  0  0  0  0  0
  -36.2999    3.0111  -45.8796 X   0  0  0  0  0  0  0  0  0  0  0  0
  1  2  1  0  0  0  0
  2  3  1  0  0  0  0
  2 11  1  0  0  0  0
  3  4  1  0  0  0  0
  4  5  1  0  0  0  0
  5  6  1  0  0  0  0
  5 12  1  0  0  0  0
  6  7  2  0  0  0  0
  6 11  1  0  0  0  0
  7  8  1  0  0  0  0
  8  9  2  0  0  0  0
  9 10  1  0  0  0  0
 10 11  2  0  0  0  0
M  END
> <Index>
2924

> <PropertyFieldDistance>
nan

$$$$
736054
BBcorina  12272117083D 1   1.00000     0.00000 
CORINA 4.3.0 0026  30.10.2019
 10 10  0  0  0  0  0  0  0  0999 V2000
  -36.6191    3.0901  -41.4847 N   0  0  0  0  0  0  0  0  0  0  0  0
  -36.0329    2.8087  -42.8019 C   0  0  0  0  0  0  0  0  0  0  0  0
  -34.6278    3.4052  -42.8647 C   0  0  0  0  0  0  0  0  0  0  0  0
  -33.9076    2.9097  -44.1208 C   0  0  0  0  0  0  0  0  0  0  0  0
  -34.7908    3.5138  -45.5889 S   0  0  0  0  0  0  0  0  0  0  0  0
  -34.8011    4.9345  -45.5608 O   0  0  0  0  0  0  0  0  0  0  0  0
  -34.2806    2.8446  -46.7339 O   0  0  0  0  0  0  0  0  0  0  0  0
  -36.4744    2.9137  -45.2638 C   0  0  0  0  0  0  0  0  0  0  0  0
  -36.9226    3.4087  -43.8868 C   0  0  0  0  0  0  0  0  0  0  0  0
  -36.2306    1.8573  -40.3651 X   0  0  0  0  0  0  0  0  0  0  0  0
  1  2  1  0  0  0  0
  1 10  1  0  0  0  0
  2  3  1  0  0  0  0
  2  9  1  0  0  0  0
  3  4  1  0  0  0  0
  4  5  1  0  0  0  0
  5  6  2  0  0  0  0
  5  7  2  0  0  0  0
  5  8  1  0  0  0  0
  8  9  1  0  0  0  0
M  END
> <Index>
2928

> <PropertyFieldDistance>
nan

$$$$
3119224
BBcorina  12272117083D 1   1.00000     0.00000 
CORINA 4.3.0 0026  30.10.2019
 14 15  0  0  0  0  0  0  0  0999 V2000
  -37.7257   -0.2286  -48.4535 Br  0  0  0  0  0  0  0  0  0  0  0  0
  -37.1296    0.8633  -47.0293 C   0  0  0  0  0  0  0  0  0  0  0  0
  -35.8629    0.6817  -46.4885 C   0  0  0  0  0  0  0  0  0  0  0  0
  -35.4661    1.5017  -45.4474 C   0  0  0  0  0  0  0  0  0  0  0  0
  -36.3434    2.4747  -44.9802 C   0  0  0  0  0  0  0  0  0  0  0  0
  -37.5432    2.6170  -45.5220 N   0  0  0  0  0  0  0  0  0  0  0  0
  -37.9491    1.8495  -46.5156 C   0  0  0  0  0  0  0  0  0  0  0  0
  -35.9570    3.3054  -43.9342 N   0  0  0  0  0  0  0  0  0  0  0  0
  -37.0243    4.2572  -43.5958 C   0  0  0  0  0  0  0  0  0  0  0  0
  -36.5919    5.0976  -42.3920 C   0  0  0  0  0  0  0  0  0  0  0  0
  -35.3436    5.8031  -42.7133 N   0  0  0  0  0  0  0  0  0  0  0  0
  -34.2763    4.8514  -43.0517 C   0  0  0  0  0  0  0  0  0  0  0  0
  -34.7086    4.0110  -44.2556 C   0  0  0  0  0  0  0  0  0  0  0  0
  -34.8685    6.8248  -41.4271 X   0  0  0  0  0  0  0  0  0  0  0  0
  1  2  1  0  0  0  0
  2  3  2  0  0  0  0
  2  7  1  0  0  0  0
  3  4  1  0  0  0  0
  4  5  2  0  0  0  0
  5  6  1  0  0  0  0
  5  8  1  0  0  0  0
  6  7  2  0  0  0  0
  8  9  1  0  0  0  0
  8 13  1  0  0  0  0
  9 10  1  0  0  0  0
 10 11  1  0  0  0  0
 11 12  1  0  0  0  0
 11 14  1  0  0  0  0
 12 13  1  0  0  0  0
M  END
> <Index>
2953

> <PropertyFieldDistance>
nan

$$$$
4933406
BBcorina  12272117083D 1   1.00000     0.00000 
CORINA 4.3.0 0026  30.10.2019
 15 15  0  0  0  0  0  0  0  0999 V2000
  -37.3730    0.3460  -46.5027 C   0  0  0  0  0  0  0  0  0  0  0  0
  -38.0325    1.7256  -46.5550 C   0  0  0  0  0  0  0  0  0  0  0  0
  -39.5521    1.5621  -46.6261 C   0  0  0  0  0  0  0  0  0  0  0  0
  -37.5421    2.4788  -47.7931 C   0  0  0  0  0  0  0  0  0  0  0  0
  -37.6818    2.4752  -45.3619 O   0  0  0  0  0  0  0  0  0  0  0  0
  -36.3728    2.7078  -45.1490 C   0  0  0  0  0  0  0  0  0  0  0  0
  -35.5462    2.2957  -45.9386 O   0  0  0  0  0  0  0  0  0  0  0  0
  -35.9793    3.3978  -44.0602 N   0  0  0  0  0  0  0  0  0  0  0  0
  -36.9670    3.9022  -43.0964 C   0  0  0  0  0  0  0  0  0  0  0  0
  -36.7430    5.4051  -42.9017 C   0  0  0  0  0  0  0  0  0  0  0  0
  -35.2877    5.6518  -42.4977 C   0  0  0  0  0  0  0  0  0  0  0  0
  -34.3578    5.1652  -43.6116 C   0  0  0  0  0  0  0  0  0  0  0  0
  -34.5547    3.6596  -43.8143 C   0  0  0  0  0  0  0  0  0  0  0  0
  -32.9626    5.4312  -43.2367 N   0  0  0  0  0  0  0  0  0  0  0  0
  -31.9963    5.6994  -44.6217 X   0  0  0  0  0  0  0  0  0  0  0  0
  1  2  1  0  0  0  0
  2  3  1  0  0  0  0
  2  4  1  0  0  0  0
  2  5  1  0  0  0  0
  5  6  1  0  0  0  0
  6  7  2  0  0  0  0
  6  8  1  0  0  0  0
  8  9  1  0  0  0  0
  8 13  1  0  0  0  0
  9 10  1  0  0  0  0
 10 11  1  0  0  0  0
 11 12  1  0  0  0  0
 12 13  1  0  0  0  0
 12 14  1  0  0  0  0
 14 15  1  0  0  0  0
M  END
> <Index>
2958

> <PropertyFieldDistance>
nan

$$$$
889452
BBcorina  12272117083D 1   1.00000     0.00000 
CORINA 4.3.0 0026  30.10.2019
 11 12  0  0  0  0  0  0  0  0999 V2000
  -35.9531    3.4589  -44.1944 N   0  0  0  0  0  0  0  0  0  0  0  0
  -37.0234    4.3842  -43.7921 C   0  0  0  0  0  0  0  0  0  0  0  0
  -36.6083    5.1214  -42.5167 C   0  0  0  0  0  0  0  0  0  0  0  0
  -35.3624    5.7903  -42.7361 O   0  0  0  0  0  0  0  0  0  0  0  0
  -34.3048    4.9101  -43.1210 C   0  0  0  0  0  0  0  0  0  0  0  0
  -33.0188    5.7026  -43.3567 C   0  0  0  0  0  0  0  0  0  0  0  0
  -31.8990    4.7389  -43.7578 C   0  0  0  0  0  0  0  0  0  0  0  0
  -32.2901    3.9993  -45.0382 C   0  0  0  0  0  0  0  0  0  0  0  0
  -33.5852    3.2167  -44.8066 C   0  0  0  0  0  0  0  0  0  0  0  0
  -34.6977    4.1890  -44.4135 C   0  0  0  0  0  0  0  0  0  0  0  0
  -36.3991    2.5750  -45.5887 X   0  0  0  0  0  0  0  0  0  0  0  0
  1  2  1  0  0  0  0
  1 10  1  0  0  0  0
  1 11  1  0  0  0  0
  2  3  1  0  0  0  0
  3  4  1  0  0  0  0
  4  5  1  0  0  0  0
  5  6  1  0  0  0  0
  5 10  1  0  0  0  0
  6  7  1  0  0  0  0
  7  8  1  0  0  0  0
  8  9  1  0  0  0  0
  9 10  1  0  0  0  0
M  END
> <Index>
2963

> <PropertyFieldDistance>
nan

$$$$
1000508
BBcorina  12272117083D 1   1.00000     0.00000 
CORINA 4.3.0 0026  30.10.2019
 11 11  0  0  0  0  0  0  0  0999 V2000
  -36.0721    2.3324  -47.1707 C   0  0  0  0  0  0  0  0  0  0  0  0
  -35.7643    1.6391  -45.8420 C   0  0  0  0  0  0  0  0  0  0  0  0
  -36.1109    0.1528  -45.9499 C   0  0  0  0  0  0  0  0  0  0  0  0
  -35.2277   -0.4856  -46.9350 N   0  0  0  0  0  0  0  0  0  0  0  0
  -36.5974    2.2775  -44.7288 C   0  0  0  0  0  0  0  0  0  0  0  0
  -36.1803    3.6739  -44.5443 N   0  0  0  0  0  0  0  0  0  0  0  0
  -37.1113    4.3902  -43.6532 C   0  0  0  0  0  0  0  0  0  0  0  0
  -36.2803    4.9534  -42.4812 C   0  0  0  0  0  0  0  0  0  0  0  0
  -34.8447    5.0109  -43.0665 C   0  0  0  0  0  0  0  0  0  0  0  0
  -34.8223    3.7491  -43.9647 C   0  0  0  0  0  0  0  0  0  0  0  0
  -35.5821   -2.1515  -47.0870 X   0  0  0  0  0  0  0  0  0  0  0  0
  1  2  1  0  0  0  0
  2  3  1  0  0  0  0
  2  5  1  0  0  0  0
  3  4  1  0  0  0  0
  4 11  1  0  0  0  0
  5  6  1  0  0  0  0
  6  7  1  0  0  0  0
  6 10  1  0  0  0  0
  7  8  1  0  0  0  0
  8  9  1  0  0  0  0
  9 10  1  0  0  0  0
M  END
> <Index>
2975

> <PropertyFieldDistance>
nan

$$$$
4836900
BBcorina  12272117083D 1   1.00000     0.00000 
CORINA 4.3.0 0026  30.10.2019
 13 13  0  0  0  0  0  0  0  0999 V2000
  -36.2443    0.9752  -47.0561 C   0  0  0  0  0  0  0  0  0  0  0  0
  -35.7738    1.5379  -45.7133 C   0  0  0  0  0  0  0  0  0  0  0  0
  -35.9524    0.4774  -44.6251 C   0  0  0  0  0  0  0  0  0  0  0  0
  -35.0665   -0.6614  -44.9011 N   0  0  0  0  0  0  0  0  0  0  0  0
  -36.6019    2.7751  -45.3606 C   0  0  0  0  0  0  0  0  0  0  0  0
  -36.0945    3.3651  -44.1147 N   0  0  0  0  0  0  0  0  0  0  0  0
  -37.0680    4.3056  -43.5425 C   0  0  0  0  0  0  0  0  0  0  0  0
  -36.5373    4.8365  -42.2087 C   0  0  0  0  0  0  0  0  0  0  0  0
  -35.2407    5.4929  -42.4267 N   0  0  0  0  0  0  0  0  0  0  0  0
  -34.7333    6.0828  -41.1807 C   0  0  0  0  0  0  0  0  0  0  0  0
  -34.2672    4.5524  -42.9988 C   0  0  0  0  0  0  0  0  0  0  0  0
  -34.7978    4.0216  -44.3326 C   0  0  0  0  0  0  0  0  0  0  0  0
  -35.2350   -1.8726  -43.7058 X   0  0  0  0  0  0  0  0  0  0  0  0
  1  2  1  0  0  0  0
  2  3  1  0  0  0  0
  2  5  1  0  0  0  0
  3  4  1  0  0  0  0
  4 13  1  0  0  0  0
  5  6  1  0  0  0  0
  6  7  1  0  0  0  0
  6 12  1  0  0  0  0
  7  8  1  0  0  0  0
  8  9  1  0  0  0  0
  9 10  1  0  0  0  0
  9 11  1  0  0  0  0
 11 12  1  0  0  0  0
M  END
> <Index>
2976

> <PropertyFieldDistance>
nan

$$$$
4836902
BBcorina  12272117083D 1   1.00000     0.00000 
CORINA 4.3.0 0026  30.10.2019
 14 14  0  0  0  0  0  0  0  0999 V2000
  -35.5923    1.7940  -45.8744 C   0  0  0  0  0  0  0  0  0  0  0  0
  -36.6878    2.6433  -45.2267 C   0  0  0  0  0  0  0  0  0  0  0  0
  -36.1546    3.2953  -44.0231 N   0  0  0  0  0  0  0  0  0  0  0  0
  -37.0955    4.2995  -43.5075 C   0  0  0  0  0  0  0  0  0  0  0  0
  -36.5403    4.8975  -42.2127 C   0  0  0  0  0  0  0  0  0  0  0  0
  -35.2259    5.4987  -42.4779 N   0  0  0  0  0  0  0  0  0  0  0  0
  -34.6927    6.1508  -41.2744 C   0  0  0  0  0  0  0  0  0  0  0  0
  -33.5481    7.0873  -41.6664 C   0  0  0  0  0  0  0  0  0  0  0  0
  -32.9346    7.6984  -40.4050 C   0  0  0  0  0  0  0  0  0  0  0  0
  -34.0868    8.2033  -42.5638 C   0  0  0  0  0  0  0  0  0  0  0  0
  -32.9707    9.0327  -43.0372 N   0  0  0  0  0  0  0  0  0  0  0  0
  -34.2851    4.4945  -42.9935 C   0  0  0  0  0  0  0  0  0  0  0  0
  -34.8402    3.8966  -44.2884 C   0  0  0  0  0  0  0  0  0  0  0  0
  -33.5301   10.2951  -44.0459 X   0  0  0  0  0  0  0  0  0  0  0  0
  1  2  1  0  0  0  0
  2  3  1  0  0  0  0
  3  4  1  0  0  0  0
  3 13  1  0  0  0  0
  4  5  1  0  0  0  0
  5  6  1  0  0  0  0
  6  7  1  0  0  0  0
  6 12  1  0  0  0  0
  7  8  1  0  0  0  0
  8  9  1  0  0  0  0
  8 10  1  0  0  0  0
 10 11  1  0  0  0  0
 11 14  1  0  0  0  0
 12 13  1  0  0  0  0
M  END
> <Index>
2977

> <PropertyFieldDistance>
nan

$$$$
886802
BBcorina  12272117083D 1   1.00000     0.00000 
CORINA 4.3.0 0026  30.10.2019
 14 15  0  0  0  0  0  0  0  0999 V2000
  -32.9164    5.1782  -42.9843 N   0  0  0  0  0  0  0  0  0  0  0  0
  -34.3118    5.1251  -43.4404 C   0  0  0  0  0  0  0  0  0  0  0  0
  -35.2427    5.4941  -42.2820 C   0  0  0  0  0  0  0  0  0  0  0  0
  -36.6964    5.3781  -42.7489 C   0  0  0  0  0  0  0  0  0  0  0  0
  -36.9544    3.9548  -43.2487 C   0  0  0  0  0  0  0  0  0  0  0  0
  -36.0399    3.6504  -44.3567 N   0  0  0  0  0  0  0  0  0  0  0  0
  -34.6390    3.7093  -43.9202 C   0  0  0  0  0  0  0  0  0  0  0  0
  -36.3332    2.4199  -44.9181 C   0  0  0  0  0  0  0  0  0  0  0  0
  -37.5578    2.1899  -45.3685 N   0  0  0  0  0  0  0  0  0  0  0  0
  -37.8712    1.0248  -45.9107 C   0  0  0  0  0  0  0  0  0  0  0  0
  -36.9006    0.0397  -46.0041 C   0  0  0  0  0  0  0  0  0  0  0  0
  -35.6299    0.3136  -45.5232 C   0  0  0  0  0  0  0  0  0  0  0  0
  -35.3813    1.5016  -44.9973 N   0  0  0  0  0  0  0  0  0  0  0  0
  -32.2864    6.7619  -43.1225 X   0  0  0  0  0  0  0  0  0  0  0  0
  1  2  1  0  0  0  0
  1 14  1  0  0  0  0
  2  3  1  0  0  0  0
  2  7  1  0  0  0  0
  3  4  1  0  0  0  0
  4  5  1  0  0  0  0
  5  6  1  0  0  0  0
  6  7  1  0  0  0  0
  6  8  1  0  0  0  0
  8  9  2  0  0  0  0
  8 13  1  0  0  0  0
  9 10  1  0  0  0  0
 10 11  2  0  0  0  0
 11 12  1  0  0  0  0
 12 13  2  0  0  0  0
M  END
> <Index>
2987

> <PropertyFieldDistance>
nan

$$$$
771710
BBcorina  12272117083D 1   1.00000     0.00000 
CORINA 4.3.0 0026  30.10.2019
 11 12  0  0  0  0  0  0  0  0999 V2000
  -37.5492    7.2454  -42.1982 N   0  0  0  0  0  0  0  0  0  0  0  0
  -36.8973    5.9362  -42.0608 C   0  0  0  0  0  0  0  0  0  0  0  0
  -37.8421    4.8064  -42.5436 C   0  0  0  0  0  0  0  0  0  0  0  0
  -37.0677    4.0990  -43.6874 C   0  0  0  0  0  0  0  0  0  0  0  0
  -35.6600    4.4051  -43.3903 N   0  0  0  0  0  0  0  0  0  0  0  0
  -34.7105    4.2225  -44.4799 C   0  0  0  0  0  0  0  0  0  0  0  0
  -33.3070    4.5307  -43.9366 C   0  0  0  0  0  0  0  0  0  0  0  0
  -33.2486    5.9459  -43.3626 C   0  0  0  0  0  0  0  0  0  0  0  0
  -34.3589    6.1532  -42.3208 C   0  0  0  0  0  0  0  0  0  0  0  0
  -35.6869    5.8387  -42.9957 C   0  0  0  0  0  0  0  0  0  0  0  0
  -38.3774    7.6713  -40.7641 X   0  0  0  0  0  0  0  0  0  0  0  0
  1  2  1  0  0  0  0
  1 11  1  0  0  0  0
  2  3  1  0  0  0  0
  2 10  1  0  0  0  0
  3  4  1  0  0  0  0
  4  5  1  0  0  0  0
  5  6  1  0  0  0  0
  5 10  1  0  0  0  0
  6  7  1  0  0  0  0
  7  8  1  0  0  0  0
  8  9  1  0  0  0  0
  9 10  1  0  0  0  0
M  END
> <Index>
2988

> <PropertyFieldDistance>
nan

$$$$
752166
BBcorina  12272117083D 1   1.00000     0.00000 
CORINA 4.3.0 0026  30.10.2019
 13 13  0  0  0  0  0  0  0  0999 V2000
  -35.1222    8.7882  -36.9864 C   0  0  0  0  0  0  0  0  0  0  0  0
  -35.4426    7.5244  -37.7870 C   0  0  0  0  0  0  0  0  0  0  0  0
  -34.9598    7.6978  -39.2285 C   0  0  0  0  0  0  0  0  0  0  0  0
  -35.2754    6.4530  -40.0172 C   0  0  0  0  0  0  0  0  0  0  0  0
  -35.8316    5.5191  -39.4793 O   0  0  0  0  0  0  0  0  0  0  0  0
  -34.9395    6.3776  -41.3202 N   0  0  0  0  0  0  0  0  0  0  0  0
  -35.2462    5.1675  -42.0868 C   0  0  0  0  0  0  0  0  0  0  0  0
  -36.6793    5.2476  -42.6203 C   0  0  0  0  0  0  0  0  0  0  0  0
  -36.9723    4.0086  -43.4694 C   0  0  0  0  0  0  0  0  0  0  0  0
  -36.0191    3.9414  -44.5845 N   0  0  0  0  0  0  0  0  0  0  0  0
  -34.6396    3.8164  -44.0971 C   0  0  0  0  0  0  0  0  0  0  0  0
  -34.2769    5.0496  -43.2664 C   0  0  0  0  0  0  0  0  0  0  0  0
  -36.4111    2.6624  -45.6495 X   0  0  0  0  0  0  0  0  0  0  0  0
  1  2  1  0  0  0  0
  2  3  1  0  0  0  0
  3  4  1  0  0  0  0
  4  5  2  0  0  0  0
  4  6  1  0  0  0  0
  6  7  1  0  0  0  0
  7  8  1  0  0  0  0
  7 12  1  0  0  0  0
  8  9  1  0  0  0  0
  9 10  1  0  0  0  0
 10 11  1  0  0  0  0
 10 13  1  0  0  0  0
 11 12  1  0  0  0  0
M  END
> <Index>
2996

> <PropertyFieldDistance>
nan

$$$$
752136
BBcorina  12272117083D 1   1.00000     0.00000 
CORINA 4.3.0 0026  30.10.2019
 13 13  0  0  0  0  0  0  0  0999 V2000
  -33.5529    8.6212  -39.8284 C   0  0  0  0  0  0  0  0  0  0  0  0
  -35.0673    8.4030  -39.8403 C   0  0  0  0  0  0  0  0  0  0  0  0
  -35.7780    9.7525  -39.7196 C   0  0  0  0  0  0  0  0  0  0  0  0
  -35.4687    7.7375  -41.1314 C   0  0  0  0  0  0  0  0  0  0  0  0
  -36.2467    8.2884  -41.8812 O   0  0  0  0  0  0  0  0  0  0  0  0
  -34.9633    6.5301  -41.4528 N   0  0  0  0  0  0  0  0  0  0  0  0
  -35.3535    5.8833  -42.7079 C   0  0  0  0  0  0  0  0  0  0  0  0
  -36.6585    5.1099  -42.5008 C   0  0  0  0  0  0  0  0  0  0  0  0
  -37.0291    4.3869  -43.7977 C   0  0  0  0  0  0  0  0  0  0  0  0
  -35.9480    3.4664  -44.1723 N   0  0  0  0  0  0  0  0  0  0  0  0
  -34.6958    4.1916  -44.4226 C   0  0  0  0  0  0  0  0  0  0  0  0
  -34.2559    4.9088  -43.1442 C   0  0  0  0  0  0  0  0  0  0  0  0
  -36.3899    2.5211  -45.5270 X   0  0  0  0  0  0  0  0  0  0  0  0
  1  2  1  0  0  0  0
  2  3  1  0  0  0  0
  2  4  1  0  0  0  0
  4  5  2  0  0  0  0
  4  6  1  0  0  0  0
  6  7  1  0  0  0  0
  7  8  1  0  0  0  0
  7 12  1  0  0  0  0
  8  9  1  0  0  0  0
  9 10  1  0  0  0  0
 10 11  1  0  0  0  0
 10 13  1  0  0  0  0
 11 12  1  0  0  0  0
M  END
> <Index>
2997

> <PropertyFieldDistance>
nan

$$$$
3643024
BBcorina  12272117083D 1   1.00000     0.00000 
CORINA 4.3.0 0026  30.10.2019
 13 13  0  0  0  0  0  0  0  0999 V2000
  -34.8460    2.5874  -46.3866 F   0  0  0  0  0  0  0  0  0  0  0  0
  -36.1729    2.3166  -46.0357 C   0  0  0  0  0  0  0  0  0  0  0  0
  -36.6325    1.2145  -46.7646 F   0  0  0  0  0  0  0  0  0  0  0  0
  -36.9683    3.4309  -46.3239 F   0  0  0  0  0  0  0  0  0  0  0  0
  -36.2517    2.0070  -44.5393 C   0  0  0  0  0  0  0  0  0  0  0  0
  -35.9153    3.2133  -43.7714 N   0  0  0  0  0  0  0  0  0  0  0  0
  -37.0403    4.1570  -43.7542 C   0  0  0  0  0  0  0  0  0  0  0  0
  -36.7095    5.3305  -42.8292 C   0  0  0  0  0  0  0  0  0  0  0  0
  -35.4418    6.0277  -43.3307 C   0  0  0  0  0  0  0  0  0  0  0  0
  -34.2975    5.0118  -43.3851 C   0  0  0  0  0  0  0  0  0  0  0  0
  -34.6983    3.8476  -44.2940 C   0  0  0  0  0  0  0  0  0  0  0  0
  -35.0871    7.1198  -42.4146 N   0  0  0  0  0  0  0  0  0  0  0  0
  -34.6922    6.5156  -40.8644 X   0  0  0  0  0  0  0  0  0  0  0  0
  1  2  1  0  0  0  0
  2  3  1  0  0  0  0
  2  4  1  0  0  0  0
  2  5  1  0  0  0  0
  5  6  1  0  0  0  0
  6  7  1  0  0  0  0
  6 11  1  0  0  0  0
  7  8  1  0  0  0  0
  8  9  1  0  0  0  0
  9 10  1  0  0  0  0
  9 12  1  0  0  0  0
 10 11  1  0  0  0  0
 12 13  1  0  0  0  0
M  END
> <Index>
3001

> <PropertyFieldDistance>
nan

$$$$
7788154
BBcorina  12272117083D 1   1.00000     0.00000 
CORINA 4.3.0 0026  30.10.2019
 14 15  0  0  0  0  0  0  0  0999 V2000
  -35.7894   -1.4498  -44.6336 C   0  0  0  0  0  0  0  0  0  0  0  0
  -36.2236   -0.2583  -45.4896 C   0  0  0  0  0  0  0  0  0  0  0  0
  -36.3241   -0.6583  -46.9630 C   0  0  0  0  0  0  0  0  0  0  0  0
  -37.5611    0.3098  -44.9896 C   0  0  0  0  0  0  0  0  0  0  0  0
  -37.4182    1.6817  -44.5562 N   0  0  0  0  0  0  0  0  0  0  0  0
  -36.2719    2.2574  -44.6237 C   0  0  0  0  0  0  0  0  0  0  0  0
  -35.0734    1.1402  -45.2867 S   0  0  0  0  0  0  0  0  0  0  0  0
  -36.0161    3.5541  -44.2419 N   0  0  0  0  0  0  0  0  0  0  0  0
  -37.0866    4.4082  -43.7054 C   0  0  0  0  0  0  0  0  0  0  0  0
  -36.6062    5.0188  -42.3846 C   0  0  0  0  0  0  0  0  0  0  0  0
  -35.3207    5.6961  -42.6009 N   0  0  0  0  0  0  0  0  0  0  0  0
  -34.2798    4.7449  -43.0128 C   0  0  0  0  0  0  0  0  0  0  0  0
  -34.6636    4.1210  -44.3536 C   0  0  0  0  0  0  0  0  0  0  0  0
  -34.8422    6.5622  -41.2062 X   0  0  0  0  0  0  0  0  0  0  0  0
  1  2  1  0  0  0  0
  2  3  1  0  0  0  0
  2  4  1  0  0  0  0
  2  7  1  0  0  0  0
  4  5  1  0  0  0  0
  5  6  2  0  0  0  0
  6  7  1  0  0  0  0
  6  8  1  0  0  0  0
  8  9  1  0  0  0  0
  8 13  1  0  0  0  0
  9 10  1  0  0  0  0
 10 11  1  0  0  0  0
 11 12  1  0  0  0  0
 11 14  1  0  0  0  0
 12 13  1  0  0  0  0
M  END
> <Index>
3010

> <PropertyFieldDistance>
nan

$$$$
788242
BBcorina  12272117083D 1   1.00000     0.00000 
CORINA 4.3.0 0026  30.10.2019
 13 13  0  0  0  0  0  0  0  0999 V2000
  -35.1586    8.6660  -37.0449 C   0  0  0  0  0  0  0  0  0  0  0  0
  -35.4107    7.5359  -37.8822 O   0  0  0  0  0  0  0  0  0  0  0  0
  -34.9598    7.6978  -39.2285 C   0  0  0  0  0  0  0  0  0  0  0  0
  -35.2754    6.4530  -40.0172 C   0  0  0  0  0  0  0  0  0  0  0  0
  -35.8316    5.5191  -39.4793 O   0  0  0  0  0  0  0  0  0  0  0  0
  -34.9395    6.3776  -41.3202 N   0  0  0  0  0  0  0  0  0  0  0  0
  -35.2462    5.1675  -42.0868 C   0  0  0  0  0  0  0  0  0  0  0  0
  -36.6793    5.2476  -42.6203 C   0  0  0  0  0  0  0  0  0  0  0  0
  -36.9723    4.0086  -43.4694 C   0  0  0  0  0  0  0  0  0  0  0  0
  -36.0191    3.9414  -44.5845 N   0  0  0  0  0  0  0  0  0  0  0  0
  -34.6396    3.8164  -44.0971 C   0  0  0  0  0  0  0  0  0  0  0  0
  -34.2769    5.0496  -43.2664 C   0  0  0  0  0  0  0  0  0  0  0  0
  -36.4111    2.6624  -45.6495 X   0  0  0  0  0  0  0  0  0  0  0  0
  1  2  1  0  0  0  0
  2  3  1  0  0  0  0
  3  4  1  0  0  0  0
  4  5  2  0  0  0  0
  4  6  1  0  0  0  0
  6  7  1  0  0  0  0
  7  8  1  0  0  0  0
  7 12  1  0  0  0  0
  8  9  1  0  0  0  0
  9 10  1  0  0  0  0
 10 11  1  0  0  0  0
 10 13  1  0  0  0  0
 11 12  1  0  0  0  0
M  END
> <Index>
3014

> <PropertyFieldDistance>
nan

$$$$
4926394
BBcorina  12272117083D 1   1.00000     0.00000 
CORINA 4.3.0 0026  30.10.2019
 15 16  0  0  0  0  0  0  0  0999 V2000
  -34.9610    6.9330  -41.8355 C   0  0  0  0  0  0  0  0  0  0  0  0
  -35.2419    5.4965  -42.2810 C   0  0  0  0  0  0  0  0  0  0  0  0
  -36.6956    5.3806  -42.7479 C   0  0  0  0  0  0  0  0  0  0  0  0
  -36.9538    3.9574  -43.2476 C   0  0  0  0  0  0  0  0  0  0  0  0
  -36.0394    3.6528  -44.3555 N   0  0  0  0  0  0  0  0  0  0  0  0
  -34.6385    3.7115  -43.9192 C   0  0  0  0  0  0  0  0  0  0  0  0
  -34.3111    5.1273  -43.4394 C   0  0  0  0  0  0  0  0  0  0  0  0
  -36.3363    2.4081  -44.9234 C   0  0  0  0  0  0  0  0  0  0  0  0
  -35.5834    1.9340  -45.9896 C   0  0  0  0  0  0  0  0  0  0  0  0
  -35.8760    0.7060  -46.5494 C   0  0  0  0  0  0  0  0  0  0  0  0
  -36.9229   -0.0547  -46.0461 C   0  0  0  0  0  0  0  0  0  0  0  0
  -37.2199   -1.2995  -46.6139 N   0  0  0  0  0  0  0  0  0  0  0  0
  -37.6791    0.4216  -44.9833 C   0  0  0  0  0  0  0  0  0  0  0  0
  -37.3838    1.6477  -44.4207 C   0  0  0  0  0  0  0  0  0  0  0  0
  -36.2977   -1.8798  -47.9319 X   0  0  0  0  0  0  0  0  0  0  0  0
  1  2  1  0  0  0  0
  2  3  1  0  0  0  0
  2  7  1  0  0  0  0
  3  4  1  0  0  0  0
  4  5  1  0  0  0  0
  5  6  1  0  0  0  0
  5  8  1  0  0  0  0
  6  7  1  0  0  0  0
  8  9  2  0  0  0  0
  8 14  1  0  0  0  0
  9 10  1  0  0  0  0
 10 11  2  0  0  0  0
 11 12  1  0  0  0  0
 11 13  1  0  0  0  0
 12 15  1  0  0  0  0
 13 14  2  0  0  0  0
M  END
> <Index>
3016

> <PropertyFieldDistance>
nan

$$$$
6727008
BBcorina  12272117083D 1   1.00000     0.00000 
CORINA 4.3.0 0026  30.10.2019
  8  8  0  0  0  0  0  0  0  0999 V2000
  -35.9889    3.6746  -44.4116 N   0  0  0  0  0  0  0  0  0  0  0  0
  -36.9499    4.6228  -43.8044 C   0  0  0  0  0  0  0  0  0  0  0  0
  -36.7930    4.7496  -42.3081 C   0  0  0  0  0  0  0  0  0  0  0  0
  -35.8257    5.9165  -41.9982 C   0  0  0  0  0  0  0  0  0  0  0  0
  -34.5375    5.5699  -42.2927 O   0  0  0  0  0  0  0  0  0  0  0  0
  -34.2296    5.2295  -43.6518 C   0  0  0  0  0  0  0  0  0  0  0  0
  -34.6260    3.7872  -43.8617 C   0  0  0  0  0  0  0  0  0  0  0  0
  -35.9764    3.8214  -46.1152 X   0  0  0  0  0  0  0  0  0  0  0  0
  1  2  1  0  0  0  0
  1  7  1  0  0  0  0
  1  8  1  0  0  0  0
  2  3  1  0  0  0  0
  3  4  1  0  0  0  0
  4  5  1  0  0  0  0
  5  6  1  0  0  0  0
  6  7  1  0  0  0  0
M  END
> <Index>
3025

> <PropertyFieldDistance>
nan

$$$$
7286856
BBcorina  12272117083D 1   1.00000     0.00000 
CORINA 4.3.0 0026  30.10.2019
 14 15  0  0  0  0  0  0  0  0999 V2000
  -35.0589    0.0903  -47.6047 C   0  0  0  0  0  0  0  0  0  0  0  0
  -35.8597    0.6599  -46.4621 C   0  0  0  0  0  0  0  0  0  0  0  0
  -36.9099   -0.0569  -45.9046 C   0  0  0  0  0  0  0  0  0  0  0  0
  -37.6238    0.4928  -44.8585 C   0  0  0  0  0  0  0  0  0  0  0  0
  -37.3201    1.6865  -44.3854 N   0  0  0  0  0  0  0  0  0  0  0  0
  -36.3260    2.4010  -44.8900 C   0  0  0  0  0  0  0  0  0  0  0  0
  -35.5680    1.9108  -45.9483 C   0  0  0  0  0  0  0  0  0  0  0  0
  -36.0410    3.6546  -44.3612 N   0  0  0  0  0  0  0  0  0  0  0  0
  -36.9584    3.9831  -43.2612 C   0  0  0  0  0  0  0  0  0  0  0  0
  -36.6644    5.3991  -42.7603 C   0  0  0  0  0  0  0  0  0  0  0  0
  -35.2656    5.4783  -42.3166 N   0  0  0  0  0  0  0  0  0  0  0  0
  -34.3478    5.1502  -43.4164 C   0  0  0  0  0  0  0  0  0  0  0  0
  -34.6419    3.7341  -43.9173 C   0  0  0  0  0  0  0  0  0  0  0  0
  -34.9156    7.0205  -41.6658 X   0  0  0  0  0  0  0  0  0  0  0  0
  1  2  1  0  0  0  0
  2  3  2  0  0  0  0
  2  7  1  0  0  0  0
  3  4  1  0  0  0  0
  4  5  2  0  0  0  0
  5  6  1  0  0  0  0
  6  7  2  0  0  0  0
  6  8  1  0  0  0  0
  8  9  1  0  0  0  0
  8 13  1  0  0  0  0
  9 10  1  0  0  0  0
 10 11  1  0  0  0  0
 11 12  1  0  0  0  0
 11 14  1  0  0  0  0
 12 13  1  0  0  0  0
M  END
> <Index>
3027

> <PropertyFieldDistance>
nan

$$$$
774372
BBcorina  12272117083D 1   1.00000     0.00000 
CORINA 4.3.0 0026  30.10.2019
  8  8  0  0  0  0  0  0  0  0999 V2000
  -36.4254    4.3897  -41.5264 C   0  0  0  0  0  0  0  0  0  0  0  0
  -36.8421    3.8733  -42.8370 N   0  0  0  0  0  0  0  0  0  0  0  0
  -35.6774    3.5946  -43.6876 C   0  0  0  0  0  0  0  0  0  0  0  0
  -34.9094    2.3469  -43.1829 C   0  0  0  0  0  0  0  0  0  0  0  0
  -34.1592    1.8354  -44.4301 C   0  0  0  0  0  0  0  0  0  0  0  0
  -34.9310    2.3588  -45.6540 C   0  0  0  0  0  0  0  0  0  0  0  0
  -36.1244    3.1701  -45.1086 C   0  0  0  0  0  0  0  0  0  0  0  0
  -37.9190    4.9552  -43.6077 X   0  0  0  0  0  0  0  0  0  0  0  0
  1  2  1  0  0  0  0
  2  3  1  0  0  0  0
  2  8  1  0  0  0  0
  3  4  1  0  0  0  0
  3  7  1  0  0  0  0
  4  5  1  0  0  0  0
  5  6  1  0  0  0  0
  6  7  1  0  0  0  0
M  END
> <Index>
3041

> <PropertyFieldDistance>
nan

$$$$
5902462
BBcorina  12272117083D 1   1.00000     0.00000 
CORINA 4.3.0 0026  30.10.2019
 15 16  0  0  0  0  0  0  0  0999 V2000
  -34.8281    6.9540  -42.1297 N   0  0  0  0  0  0  0  0  0  0  0  0
  -35.1650    5.5548  -42.4240 C   0  0  0  0  0  0  0  0  0  0  0  0
  -36.6444    5.4541  -42.8062 C   0  0  0  0  0  0  0  0  0  0  0  0
  -36.9747    4.0050  -43.1704 C   0  0  0  0  0  0  0  0  0  0  0  0
  -36.1305    3.5765  -44.2930 N   0  0  0  0  0  0  0  0  0  0  0  0
  -36.5153    2.2379  -44.7601 C   0  0  0  0  0  0  0  0  0  0  0  0
  -35.8041    1.9335  -46.0533 C   0  0  0  0  0  0  0  0  0  0  0  0
  -35.0509    2.7511  -46.5383 O   0  0  0  0  0  0  0  0  0  0  0  0
  -36.0051    0.7526  -46.6712 N   0  0  0  0  0  0  0  0  0  0  0  0
  -35.3184    0.4592  -47.9315 C   0  0  0  0  0  0  0  0  0  0  0  0
  -35.0936   -1.0117  -48.2877 C   0  0  0  0  0  0  0  0  0  0  0  0
  -36.1379   -0.1916  -49.0477 C   0  0  0  0  0  0  0  0  0  0  0  0
  -34.7073    3.6195  -43.9337 C   0  0  0  0  0  0  0  0  0  0  0  0
  -34.3093    5.0572  -43.5922 C   0  0  0  0  0  0  0  0  0  0  0  0
  -35.2136    7.9683  -43.4515 X   0  0  0  0  0  0  0  0  0  0  0  0
  1  2  1  0  0  0  0
  1 15  1  0  0  0  0
  2  3  1  0  0  0  0
  2 14  1  0  0  0  0
  3  4  1  0  0  0  0
  4  5  1  0  0  0  0
  5  6  1  0  0  0  0
  5 13  1  0  0  0  0
  6  7  1  0  0  0  0
  7  8  2  0  0  0  0
  7  9  1  0  0  0  0
  9 10  1  0  0  0  0
 10 11  1  0  0  0  0
 10 12  1  0  0  0  0
 11 12  1  0  0  0  0
 13 14  1  0  0  0  0
M  END
> <Index>
3063

> <PropertyFieldDistance>
nan

$$$$
3305438
BBcorina  12272117083D 1   1.00000     0.00000 
CORINA 4.3.0 0026  30.10.2019
 12 12  0  0  0  0  0  0  0  0999 V2000
  -35.8967    0.9005  -46.7270 N   0  0  0  0  0  0  0  0  0  0  0  0
  -35.7076    2.0331  -46.0215 C   0  0  0  0  0  0  0  0  0  0  0  0
  -34.8712    2.8364  -46.3769 O   0  0  0  0  0  0  0  0  0  0  0  0
  -36.5353    2.3017  -44.7912 C   0  0  0  0  0  0  0  0  0  0  0  0
  -36.1406    3.5906  -44.2072 N   0  0  0  0  0  0  0  0  0  0  0  0
  -37.0339    3.9803  -43.2010 C   0  0  0  0  0  0  0  0  0  0  0  0
  -36.7506    5.4208  -42.7190 C   0  0  0  0  0  0  0  0  0  0  0  0
  -35.5328    5.4091  -41.8305 C   0  0  0  0  0  0  0  0  0  0  0  0
  -34.2771    5.6741  -42.5689 N   0  0  0  0  0  0  0  0  0  0  0  0
  -34.1954    4.9840  -43.8726 C   0  0  0  0  0  0  0  0  0  0  0  0
  -34.7222    3.5732  -43.7964 C   0  0  0  0  0  0  0  0  0  0  0  0
  -34.0141    7.3544  -42.7474 X   0  0  0  0  0  0  0  0  0  0  0  0
  1  2  1  0  0  0  0
  2  3  2  0  0  0  0
  2  4  1  0  0  0  0
  4  5  1  0  0  0  0
  5  6  1  0  0  0  0
  5 11  1  0  0  0  0
  6  7  1  0  0  0  0
  7  8  1  0  0  0  0
  8  9  1  0  0  0  0
  9 10  1  0  0  0  0
  9 12  1  0  0  0  0
 10 11  1  0  0  0  0
M  END
> <Index>
3074

> <PropertyFieldDistance>
nan

$$$$
1030722
BBcorina  12272117083D 1   1.00000     0.00000 
CORINA 4.3.0 0026  30.10.2019
 16 17  0  0  0  0  0  0  0  0999 V2000
  -36.0794   -0.5748  -44.1689 C   0  0  0  0  0  0  0  0  0  0  0  0
  -35.3464    0.2480  -45.1969 C   0  0  0  0  0  0  0  0  0  0  0  0
  -34.3633   -0.1875  -45.9906 O   0  0  0  0  0  0  0  0  0  0  0  0
  -33.9244    0.7950  -46.7927 C   0  0  0  0  0  0  0  0  0  0  0  0
  -34.6172    1.9149  -46.5355 C   0  0  0  0  0  0  0  0  0  0  0  0
  -35.5738    1.5639  -45.4757 C   0  0  0  0  0  0  0  0  0  0  0  0
  -36.5668    2.4500  -44.8427 C   0  0  0  0  0  0  0  0  0  0  0  0
  -37.7204    2.0838  -44.7240 O   0  0  0  0  0  0  0  0  0  0  0  0
  -36.1965    3.6662  -44.3951 N   0  0  0  0  0  0  0  0  0  0  0  0
  -37.1513    4.5230  -43.6790 C   0  0  0  0  0  0  0  0  0  0  0  0
  -36.5319    4.9408  -42.3416 C   0  0  0  0  0  0  0  0  0  0  0  0
  -35.1707    5.5924  -42.5959 C   0  0  0  0  0  0  0  0  0  0  0  0
  -34.2367    4.5821  -43.2660 C   0  0  0  0  0  0  0  0  0  0  0  0
  -34.8285    4.1578  -44.6089 C   0  0  0  0  0  0  0  0  0  0  0  0
  -34.5885    6.0244  -41.3181 N   0  0  0  0  0  0  0  0  0  0  0  0
  -34.2712    4.6839  -40.3050 X   0  0  0  0  0  0  0  0  0  0  0  0
  1  2  1  0  0  0  0
  2  3  1  0  0  0  0
  2  6  2  0  0  0  0
  3  4  1  0  0  0  0
  4  5  2  0  0  0  0
  5  6  1  0  0  0  0
  6  7  1  0  0  0  0
  7  8  2  0  0  0  0
  7  9  1  0  0  0  0
  9 10  1  0  0  0  0
  9 14  1  0  0  0  0
 10 11  1  0  0  0  0
 11 12  1  0  0  0  0
 12 13  1  0  0  0  0
 12 15  1  0  0  0  0
 13 14  1  0  0  0  0
 15 16  1  0  0  0  0
M  END
> <Index>
3097

> <PropertyFieldDistance>
nan

$$$$
6739922
BBcorina  12272117083D 1   1.00000     0.00000 
CORINA 4.3.0 0026  30.10.2019
 14 14  0  0  0  0  0  0  0  0999 V2000
  -37.3098    5.8036  -41.4466 C   0  0  0  0  0  0  0  0  0  0  0  0
  -36.5429    5.4197  -42.7136 C   0  0  0  0  0  0  0  0  0  0  0  0
  -36.9886    4.0312  -43.1799 C   0  0  0  0  0  0  0  0  0  0  0  0
  -36.1943    3.6341  -44.3516 N   0  0  0  0  0  0  0  0  0  0  0  0
  -36.6301    2.3288  -44.8652 C   0  0  0  0  0  0  0  0  0  0  0  0
  -35.6329    1.8350  -45.9154 C   0  0  0  0  0  0  0  0  0  0  0  0
  -36.0869    0.4754  -46.4502 C   0  0  0  0  0  0  0  0  0  0  0  0
  -35.0896   -0.0184  -47.5004 C   0  0  0  0  0  0  0  0  0  0  0  0
  -35.5255   -1.3237  -48.0140 N   0  0  0  0  0  0  0  0  0  0  0  0
  -34.7602    3.6211  -44.0286 C   0  0  0  0  0  0  0  0  0  0  0  0
  -34.3365    5.0139  -43.5548 C   0  0  0  0  0  0  0  0  0  0  0  0
  -32.8635    4.9871  -43.1420 C   0  0  0  0  0  0  0  0  0  0  0  0
  -35.1402    5.3960  -42.4352 O   0  0  0  0  0  0  0  0  0  0  0  0
  -34.4362   -1.9131  -49.1930 X   0  0  0  0  0  0  0  0  0  0  0  0
  1  2  1  0  0  0  0
  2  3  1  0  0  0  0
  2 13  1  0  0  0  0
  3  4  1  0  0  0  0
  4  5  1  0  0  0  0
  4 10  1  0  0  0  0
  5  6  1  0  0  0  0
  6  7  1  0  0  0  0
  7  8  1  0  0  0  0
  8  9  1  0  0  0  0
  9 14  1  0  0  0  0
 10 11  1  0  0  0  0
 11 12  1  0  0  0  0
 11 13  1  0  0  0  0
M  END
> <Index>
3105

> <PropertyFieldDistance>
nan

$$$$
7633664
BBcorina  12272117083D 1   1.00000     0.00000 
CORINA 4.3.0 0026  30.10.2019
 10 10  0  0  0  0  0  0  0  0999 V2000
  -31.8675    4.7066  -43.8496 C   0  0  0  0  0  0  0  0  0  0  0  0
  -32.9625    5.6812  -43.4113 C   0  0  0  0  0  0  0  0  0  0  0  0
  -32.5533    6.3521  -42.2178 O   0  0  0  0  0  0  0  0  0  0  0  0
  -34.2559    4.9088  -43.1443 C   0  0  0  0  0  0  0  0  0  0  0  0
  -35.3534    5.8832  -42.7079 C   0  0  0  0  0  0  0  0  0  0  0  0
  -36.6587    5.1099  -42.5007 C   0  0  0  0  0  0  0  0  0  0  0  0
  -37.0291    4.3869  -43.7977 C   0  0  0  0  0  0  0  0  0  0  0  0
  -35.9479    3.4664  -44.1723 N   0  0  0  0  0  0  0  0  0  0  0  0
  -34.6958    4.1916  -44.4226 C   0  0  0  0  0  0  0  0  0  0  0  0
  -36.3899    2.5210  -45.5270 X   0  0  0  0  0  0  0  0  0  0  0  0
  1  2  1  0  0  0  0
  2  3  1  0  0  0  0
  2  4  1  0  0  0  0
  4  5  1  0  0  0  0
  4  9  1  0  0  0  0
  5  6  1  0  0  0  0
  6  7  1  0  0  0  0
  7  8  1  0  0  0  0
  8  9  1  0  0  0  0
  8 10  1  0  0  0  0
M  END
> <Index>
3111

> <PropertyFieldDistance>
nan

$$$$
860460
BBcorina  12272117083D 1   1.00000     0.00000 
CORINA 4.3.0 0026  30.10.2019
 12 13  0  0  0  0  0  0  0  0999 V2000
  -35.7993    0.8362  -46.0397 N   0  0  0  0  0  0  0  0  0  0  0  0
  -35.9986    2.2186  -46.4948 C   0  0  0  0  0  0  0  0  0  0  0  0
  -36.6430    3.0217  -45.3944 C   0  0  0  0  0  0  0  0  0  0  0  0
  -37.9266    3.1824  -45.1984 N   0  0  0  0  0  0  0  0  0  0  0  0
  -38.1193    3.9261  -44.1633 N   0  0  0  0  0  0  0  0  0  0  0  0
  -36.9737    4.2771  -43.6630 C   0  0  0  0  0  0  0  0  0  0  0  0
  -36.7002    5.1425  -42.4587 C   0  0  0  0  0  0  0  0  0  0  0  0
  -35.2371    4.9356  -42.0443 C   0  0  0  0  0  0  0  0  0  0  0  0
  -34.3385    5.0634  -43.2779 C   0  0  0  0  0  0  0  0  0  0  0  0
  -34.5687    3.8662  -44.2075 C   0  0  0  0  0  0  0  0  0  0  0  0
  -36.0062    3.7143  -44.4306 N   0  0  0  0  0  0  0  0  0  0  0  0
  -35.0687   -0.1117  -47.2611 X   0  0  0  0  0  0  0  0  0  0  0  0
  1  2  1  0  0  0  0
  1 12  1  0  0  0  0
  2  3  1  0  0  0  0
  3  4  2  0  0  0  0
  3 11  1  0  0  0  0
  4  5  1  0  0  0  0
  5  6  2  0  0  0  0
  6  7  1  0  0  0  0
  6 11  1  0  0  0  0
  7  8  1  0  0  0  0
  8  9  1  0  0  0  0
  9 10  1  0  0  0  0
 10 11  1  0  0  0  0
M  END
> <Index>
3113

> <PropertyFieldDistance>
nan

$$$$
13940378
BBcorina  12272117083D 1   1.00000     0.00000 
CORINA 4.3.0 0026  30.10.2019
 12 12  0  0  0  0  0  0  0  0999 V2000
  -35.4810    0.2195  -47.8643 C   0  0  0  0  0  0  0  0  0  0  0  0
  -36.2011    0.5314  -46.5509 C   0  0  0  0  0  0  0  0  0  0  0  0
  -35.7987    1.9261  -46.0674 C   0  0  0  0  0  0  0  0  0  0  0  0
  -36.5188    2.2379  -44.7540 C   0  0  0  0  0  0  0  0  0  0  0  0
  -36.1324    3.5770  -44.2897 N   0  0  0  0  0  0  0  0  0  0  0  0
  -36.9749    4.0081  -43.1668 C   0  0  0  0  0  0  0  0  0  0  0  0
  -36.6429    5.4576  -42.8054 C   0  0  0  0  0  0  0  0  0  0  0  0
  -35.1631    5.5577  -42.4253 C   0  0  0  0  0  0  0  0  0  0  0  0
  -34.3092    5.0575  -43.5937 C   0  0  0  0  0  0  0  0  0  0  0  0
  -34.7087    3.6195  -43.9322 C   0  0  0  0  0  0  0  0  0  0  0  0
  -34.8246    6.9572  -42.1338 N   0  0  0  0  0  0  0  0  0  0  0  0
  -35.2110    7.9694  -43.4567 X   0  0  0  0  0  0  0  0  0  0  0  0
  1  2  1  0  0  0  0
  2  3  1  0  0  0  0
  3  4  1  0  0  0  0
  4  5  1  0  0  0  0
  5  6  1  0  0  0  0
  5 10  1  0  0  0  0
  6  7  1  0  0  0  0
  7  8  1  0  0  0  0
  8  9  1  0  0  0  0
  8 11  1  0  0  0  0
  9 10  1  0  0  0  0
 11 12  1  0  0  0  0
M  END
> <Index>
3118

> <PropertyFieldDistance>
nan

$$$$
4836916
BBcorina  12272117083D 1   1.00000     0.00000 
CORINA 4.3.0 0026  30.10.2019
 12 13  0  0  0  0  0  0  0  0999 V2000
  -36.0191    3.9414  -44.5845 N   0  0  0  0  0  0  0  0  0  0  0  0
  -36.9723    4.0087  -43.4695 C   0  0  0  0  0  0  0  0  0  0  0  0
  -36.6793    5.2476  -42.6202 C   0  0  0  0  0  0  0  0  0  0  0  0
  -35.2462    5.1676  -42.0870 C   0  0  0  0  0  0  0  0  0  0  0  0
  -34.2770    5.0496  -43.2665 C   0  0  0  0  0  0  0  0  0  0  0  0
  -34.6396    3.8164  -44.0970 C   0  0  0  0  0  0  0  0  0  0  0  0
  -34.9403    6.3786  -41.3214 N   0  0  0  0  0  0  0  0  0  0  0  0
  -34.4986    7.5483  -41.8289 C   0  0  0  0  0  0  0  0  0  0  0  0
  -34.3383    8.4106  -40.7984 C   0  0  0  0  0  0  0  0  0  0  0  0
  -34.6943    7.7451  -39.6208 C   0  0  0  0  0  0  0  0  0  0  0  0
  -35.0607    6.5286  -39.9338 N   0  0  0  0  0  0  0  0  0  0  0  0
  -36.4111    2.6621  -45.6494 X   0  0  0  0  0  0  0  0  0  0  0  0
  1  2  1  0  0  0  0
  1  6  1  0  0  0  0
  1 12  1  0  0  0  0
  2  3  1  0  0  0  0
  3  4  1  0  0  0  0
  4  5  1  0  0  0  0
  4  7  1  0  0  0  0
  5  6  1  0  0  0  0
  7  8  1  0  0  0  0
  7 11  1  0  0  0  0
  8  9  2  0  0  0  0
  9 10  1  0  0  0  0
 10 11  2  0  0  0  0
M  END
> <Index>
3122

> <PropertyFieldDistance>
nan

$$$$
885412
BBcorina  12272117083D 1   1.00000     0.00000 
CORINA 4.3.0 0026  30.10.2019
 13 13  0  0  0  0  0  0  0  0999 V2000
  -35.1971   -0.6305  -46.6337 C   0  0  0  0  0  0  0  0  0  0  0  0
  -36.2406    0.2933  -46.0022 C   0  0  0  0  0  0  0  0  0  0  0  0
  -37.3331    0.6044  -47.0271 C   0  0  0  0  0  0  0  0  0  0  0  0
  -35.5689    1.5955  -45.5616 C   0  0  0  0  0  0  0  0  0  0  0  0
  -36.5686    2.4539  -44.8304 C   0  0  0  0  0  0  0  0  0  0  0  0
  -37.7063    2.0628  -44.6769 O   0  0  0  0  0  0  0  0  0  0  0  0
  -36.1985    3.6563  -44.3471 N   0  0  0  0  0  0  0  0  0  0  0  0
  -37.1582    4.5099  -43.6306 C   0  0  0  0  0  0  0  0  0  0  0  0
  -36.5301    4.9380  -42.2999 C   0  0  0  0  0  0  0  0  0  0  0  0
  -35.2213    5.5540  -42.5557 N   0  0  0  0  0  0  0  0  0  0  0  0
  -34.2877    4.5919  -43.1565 C   0  0  0  0  0  0  0  0  0  0  0  0
  -34.8224    4.1471  -44.5170 C   0  0  0  0  0  0  0  0  0  0  0  0
  -34.5707    6.2272  -41.1247 X   0  0  0  0  0  0  0  0  0  0  0  0
  1  2  1  0  0  0  0
  2  3  1  0  0  0  0
  2  4  1  0  0  0  0
  4  5  1  0  0  0  0
  5  6  2  0  0  0  0
  5  7  1  0  0  0  0
  7  8  1  0  0  0  0
  7 12  1  0  0  0  0
  8  9  1  0  0  0  0
  9 10  1  0  0  0  0
 10 11  1  0  0  0  0
 10 13  1  0  0  0  0
 11 12  1  0  0  0  0
M  END
> <Index>
3137

> <PropertyFieldDistance>
nan

$$$$
2302592
BBcorina  12272117083D 1   1.00000     0.00000 
CORINA 4.3.0 0026  30.10.2019
 14 15  0  0  0  0  0  0  0  0999 V2000
  -38.1531    3.5088  -42.6306 C   0  0  0  0  0  0  0  0  0  0  0  0
  -37.0922    4.1515  -43.5263 C   0  0  0  0  0  0  0  0  0  0  0  0
  -36.3942    5.2986  -42.7725 C   0  0  0  0  0  0  0  0  0  0  0  0
  -34.8991    4.9073  -42.7364 C   0  0  0  0  0  0  0  0  0  0  0  0
  -34.7725    3.9134  -43.9184 C   0  0  0  0  0  0  0  0  0  0  0  0
  -33.5818    2.9756  -43.7102 C   0  0  0  0  0  0  0  0  0  0  0  0
  -36.0504    3.1581  -43.8657 N   0  0  0  0  0  0  0  0  0  0  0  0
  -36.3357    2.5156  -45.1555 C   0  0  0  0  0  0  0  0  0  0  0  0
  -36.3128    3.5683  -46.2671 C   0  0  0  0  0  0  0  0  0  0  0  0
  -36.6702    2.9014  -47.5984 C   0  0  0  0  0  0  0  0  0  0  0  0
  -38.0438    2.2374  -47.4782 C   0  0  0  0  0  0  0  0  0  0  0  0
  -38.0136    1.2385  -46.4023 N   0  0  0  0  0  0  0  0  0  0  0  0
  -37.7190    1.8628  -45.1062 C   0  0  0  0  0  0  0  0  0  0  0  0
  -39.4794    0.3601  -46.3403 X   0  0  0  0  0  0  0  0  0  0  0  0
  1  2  1  0  0  0  0
  2  3  1  0  0  0  0
  2  7  1  0  0  0  0
  3  4  1  0  0  0  0
  4  5  1  0  0  0  0
  5  6  1  0  0  0  0
  5  7  1  0  0  0  0
  7  8  1  0  0  0  0
  8  9  1  0  0  0  0
  8 13  1  0  0  0  0
  9 10  1  0  0  0  0
 10 11  1  0  0  0  0
 11 12  1  0  0  0  0
 12 13  1  0  0  0  0
 12 14  1  0  0  0  0
M  END
> <Index>
3200

> <PropertyFieldDistance>
nan

$$$$
12215116
BBcorina  12272117083D 1   1.00000     0.00000 
CORINA 4.3.0 0026  30.10.2019
  7  8  0  0  0  0  0  0  0  0999 V2000
  -36.0637    3.5298  -44.4137 N   0  0  0  0  0  0  0  0  0  0  0  0
  -36.9946    4.5502  -43.8666 C   0  0  0  0  0  0  0  0  0  0  0  0
  -36.4718    4.8295  -42.4412 C   0  0  0  0  0  0  0  0  0  0  0  0
  -35.4221    5.9279  -42.2602 C   0  0  0  0  0  0  0  0  0  0  0  0
  -34.9803    4.4370  -42.4773 C   0  0  0  0  0  0  0  0  0  0  0  0
  -34.7276    3.9536  -43.9215 C   0  0  0  0  0  0  0  0  0  0  0  0
  -36.1098    3.5119  -46.1230 X   0  0  0  0  0  0  0  0  0  0  0  0
  1  2  1  0  0  0  0
  1  6  1  0  0  0  0
  1  7  1  0  0  0  0
  2  3  1  0  0  0  0
  3  4  1  0  0  0  0
  3  5  1  0  0  0  0
  4  5  1  0  0  0  0
  5  6  1  0  0  0  0
M  END
> <Index>
3217

> <PropertyFieldDistance>
nan

$$$$
1009320
BBcorina  12272117083D 1   1.00000     0.00000 
CORINA 4.3.0 0026  30.10.2019
 16 17  0  0  0  0  0  0  0  0999 V2000
  -34.5788    6.1324  -41.3107 C   0  0  0  0  0  0  0  0  0  0  0  0
  -35.1792    5.6355  -42.6273 C   0  0  0  0  0  0  0  0  0  0  0  0
  -36.5373    4.9845  -42.3548 C   0  0  0  0  0  0  0  0  0  0  0  0
  -37.1507    4.5189  -43.6790 C   0  0  0  0  0  0  0  0  0  0  0  0
  -36.1892    3.6447  -44.3642 N   0  0  0  0  0  0  0  0  0  0  0  0
  -34.8252    4.1393  -44.5959 C   0  0  0  0  0  0  0  0  0  0  0  0
  -34.2377    4.6091  -43.2615 C   0  0  0  0  0  0  0  0  0  0  0  0
  -36.5514    2.4125  -44.7729 C   0  0  0  0  0  0  0  0  0  0  0  0
  -37.6479    1.9779  -44.4905 O   0  0  0  0  0  0  0  0  0  0  0  0
  -35.5940    1.5747  -45.5807 C   0  0  0  0  0  0  0  0  0  0  0  0
  -34.8149    0.6442  -44.6471 C   0  0  0  0  0  0  0  0  0  0  0  0
  -33.8888   -0.2461  -45.4786 C   0  0  0  0  0  0  0  0  0  0  0  0
  -34.6865   -1.0323  -46.4284 N   0  0  0  0  0  0  0  0  0  0  0  0
  -35.4066   -0.1609  -47.3658 C   0  0  0  0  0  0  0  0  0  0  0  0
  -36.3780    0.7333  -46.5917 C   0  0  0  0  0  0  0  0  0  0  0  0
  -33.7085   -2.1575  -47.2659 X   0  0  0  0  0  0  0  0  0  0  0  0
  1  2  1  0  0  0  0
  2  3  1  0  0  0  0
  2  7  1  0  0  0  0
  3  4  1  0  0  0  0
  4  5  1  0  0  0  0
  5  6  1  0  0  0  0
  5  8  1  0  0  0  0
  6  7  1  0  0  0  0
  8  9  2  0  0  0  0
  8 10  1  0  0  0  0
 10 11  1  0  0  0  0
 10 15  1  0  0  0  0
 11 12  1  0  0  0  0
 12 13  1  0  0  0  0
 13 14  1  0  0  0  0
 13 16  1  0  0  0  0
 14 15  1  0  0  0  0
M  END
> <Index>
3248

> <PropertyFieldDistance>
nan

$$$$
3499026
BBcorina  12272117083D 1   1.00000     0.00000 
CORINA 4.3.0 0026  30.10.2019
 14 15  0  0  0  0  0  0  0  0999 V2000
  -36.9244    3.7045  -47.2022 Cl  0  0  0  0  0  0  0  0  0  0  0  0
  -36.7490    2.2894  -46.2120 C   0  0  0  0  0  0  0  0  0  0  0  0
  -37.0284    1.0350  -46.7252 C   0  0  0  0  0  0  0  0  0  0  0  0
  -36.8745   -0.0691  -45.8968 C   0  0  0  0  0  0  0  0  0  0  0  0
  -36.4510    0.1150  -44.5963 C   0  0  0  0  0  0  0  0  0  0  0  0
  -36.1867    1.3230  -44.1346 N   0  0  0  0  0  0  0  0  0  0  0  0
  -36.3257    2.4008  -44.8902 C   0  0  0  0  0  0  0  0  0  0  0  0
  -36.0408    3.6549  -44.3609 N   0  0  0  0  0  0  0  0  0  0  0  0
  -36.9586    3.9832  -43.2611 C   0  0  0  0  0  0  0  0  0  0  0  0
  -36.6644    5.3993  -42.7602 C   0  0  0  0  0  0  0  0  0  0  0  0
  -35.2656    5.4783  -42.3166 N   0  0  0  0  0  0  0  0  0  0  0  0
  -34.3479    5.1500  -43.4164 C   0  0  0  0  0  0  0  0  0  0  0  0
  -34.6421    3.7340  -43.9173 C   0  0  0  0  0  0  0  0  0  0  0  0
  -34.9153    7.0204  -41.6659 X   0  0  0  0  0  0  0  0  0  0  0  0
  1  2  1  0  0  0  0
  2  3  2  0  0  0  0
  2  7  1  0  0  0  0
  3  4  1  0  0  0  0
  4  5  2  0  0  0  0
  5  6  1  0  0  0  0
  6  7  2  0  0  0  0
  7  8  1  0  0  0  0
  8  9  1  0  0  0  0
  8 13  1  0  0  0  0
  9 10  1  0  0  0  0
 10 11  1  0  0  0  0
 11 12  1  0  0  0  0
 11 14  1  0  0  0  0
 12 13  1  0  0  0  0
M  END
> <Index>
3260

> <PropertyFieldDistance>
nan

$$$$
1128202
BBcorina  12272117083D 1   1.00000     0.00000 
CORINA 4.3.0 0026  30.10.2019
 15 16  0  0  0  0  0  0  0  0999 V2000
  -35.7340    5.5927  -43.2112 N   0  0  0  0  0  0  0  0  0  0  0  0
  -36.3949    5.2182  -41.9613 C   0  0  0  0  0  0  0  0  0  0  0  0
  -37.1826    3.9731  -42.0385 C   0  0  0  0  0  0  0  0  0  0  0  0
  -36.2487    2.7829  -42.3731 C   0  0  0  0  0  0  0  0  0  0  0  0
  -35.7756    2.9076  -43.7347 N   0  0  0  0  0  0  0  0  0  0  0  0
  -34.5445    3.6423  -44.0926 C   0  0  0  0  0  0  0  0  0  0  0  0
  -34.4322    4.9671  -43.3075 C   0  0  0  0  0  0  0  0  0  0  0  0
  -36.4864    2.3233  -44.7195 C   0  0  0  0  0  0  0  0  0  0  0  0
  -37.5595    1.8073  -44.4712 O   0  0  0  0  0  0  0  0  0  0  0  0
  -35.9641    2.3097  -46.0956 C   0  0  0  0  0  0  0  0  0  0  0  0
  -34.5552    2.2865  -46.4122 C   0  0  0  0  0  0  0  0  0  0  0  0
  -34.3152    2.2770  -47.7180 C   0  0  0  0  0  0  0  0  0  0  0  0
  -35.8197    2.2899  -48.6217 S   0  0  0  0  0  0  0  0  0  0  0  0
  -36.7586    2.3171  -47.1994 C   0  0  0  0  0  0  0  0  0  0  0  0
  -35.6091    7.2922  -43.3531 X   0  0  0  0  0  0  0  0  0  0  0  0
  1  2  1  0  0  0  0
  1  7  1  0  0  0  0
  1 15  1  0  0  0  0
  2  3  1  0  0  0  0
  3  4  1  0  0  0  0
  4  5  1  0  0  0  0
  5  6  1  0  0  0  0
  5  8  1  0  0  0  0
  6  7  1  0  0  0  0
  8  9  2  0  0  0  0
  8 10  1  0  0  0  0
 10 11  1  0  0  0  0
 10 14  2  0  0  0  0
 11 12  2  0  0  0  0
 12 13  1  0  0  0  0
 13 14  1  0  0  0  0
M  END
> <Index>
3277

> <PropertyFieldDistance>
nan

$$$$
3048620
BBcorina  12272117083D 1   1.00000     0.00000 
CORINA 4.3.0 0026  30.10.2019
 13 13  0  0  0  0  0  0  0  0999 V2000
  -36.8424    1.2234  -46.8642 C   0  0  0  0  0  0  0  0  0  0  0  0
  -35.8751    2.0299  -45.9954 C   0  0  0  0  0  0  0  0  0  0  0  0
  -34.7601    1.1132  -45.4879 C   0  0  0  0  0  0  0  0  0  0  0  0
  -36.6199    2.6122  -44.8219 C   0  0  0  0  0  0  0  0  0  0  0  0
  -37.8075    2.4027  -44.6930 O   0  0  0  0  0  0  0  0  0  0  0  0
  -35.9663    3.3657  -43.9156 N   0  0  0  0  0  0  0  0  0  0  0  0
  -36.7121    3.9090  -42.8013 C   0  0  0  0  0  0  0  0  0  0  0  0
  -37.2555    5.3108  -43.1763 C   0  0  0  0  0  0  0  0  0  0  0  0
  -36.1374    6.2685  -43.2746 C   0  0  0  0  0  0  0  0  0  0  0  0
  -35.1586    5.9492  -44.3134 N   0  0  0  0  0  0  0  0  0  0  0  0
  -34.1384    5.0610  -43.7978 C   0  0  0  0  0  0  0  0  0  0  0  0
  -34.5182    3.5954  -44.1007 C   0  0  0  0  0  0  0  0  0  0  0  0
  -34.4634    7.3721  -44.9584 X   0  0  0  0  0  0  0  0  0  0  0  0
  1  2  1  0  0  0  0
  2  3  1  0  0  0  0
  2  4  1  0  0  0  0
  4  5  2  0  0  0  0
  4  6  1  0  0  0  0
  6  7  1  0  0  0  0
  6 12  1  0  0  0  0
  7  8  1  0  0  0  0
  8  9  1  0  0  0  0
  9 10  1  0  0  0  0
 10 11  1  0  0  0  0
 10 13  1  0  0  0  0
 11 12  1  0  0  0  0
M  END
> <Index>
3278

> <PropertyFieldDistance>
nan

$$$$
1180894
BBcorina  12272117083D 1   1.00000     0.00000 
CORINA 4.3.0 0026  30.10.2019
 13 13  0  0  0  0  0  0  0  0999 V2000
  -36.0862    0.6323  -48.0557 C   0  0  0  0  0  0  0  0  0  0  0  0
  -36.8425    1.2234  -46.8642 C   0  0  0  0  0  0  0  0  0  0  0  0
  -35.8751    2.0298  -45.9955 C   0  0  0  0  0  0  0  0  0  0  0  0
  -36.6199    2.6122  -44.8219 C   0  0  0  0  0  0  0  0  0  0  0  0
  -37.8075    2.4028  -44.6931 O   0  0  0  0  0  0  0  0  0  0  0  0
  -35.9663    3.3657  -43.9156 N   0  0  0  0  0  0  0  0  0  0  0  0
  -36.7121    3.9090  -42.8013 C   0  0  0  0  0  0  0  0  0  0  0  0
  -37.2554    5.3108  -43.1763 C   0  0  0  0  0  0  0  0  0  0  0  0
  -36.1375    6.2685  -43.2745 C   0  0  0  0  0  0  0  0  0  0  0  0
  -35.1586    5.9493  -44.3134 N   0  0  0  0  0  0  0  0  0  0  0  0
  -34.1385    5.0610  -43.7978 C   0  0  0  0  0  0  0  0  0  0  0  0
  -34.5183    3.5953  -44.1007 C   0  0  0  0  0  0  0  0  0  0  0  0
  -34.4633    7.3721  -44.9584 X   0  0  0  0  0  0  0  0  0  0  0  0
  1  2  1  0  0  0  0
  2  3  1  0  0  0  0
  3  4  1  0  0  0  0
  4  5  2  0  0  0  0
  4  6  1  0  0  0  0
  6  7  1  0  0  0  0
  6 12  1  0  0  0  0
  7  8  1  0  0  0  0
  8  9  1  0  0  0  0
  9 10  1  0  0  0  0
 10 11  1  0  0  0  0
 10 13  1  0  0  0  0
 11 12  1  0  0  0  0
M  END
> <Index>
3285

> <PropertyFieldDistance>
nan

$$$$
1034496
BBcorina  12272117083D 1   1.00000     0.00000 
CORINA 4.3.0 0026  30.10.2019
 12 12  0  0  0  0  0  0  0  0999 V2000
  -36.3988    2.3517  -46.0049 C   0  0  0  0  0  0  0  0  0  0  0  0
  -36.1146    1.9827  -44.5476 C   0  0  0  0  0  0  0  0  0  0  0  0
  -34.8908    1.0668  -44.4826 C   0  0  0  0  0  0  0  0  0  0  0  0
  -37.3265    1.2572  -43.9596 C   0  0  0  0  0  0  0  0  0  0  0  0
  -35.8532    3.2047  -43.7751 N   0  0  0  0  0  0  0  0  0  0  0  0
  -37.0088    4.1098  -43.8150 C   0  0  0  0  0  0  0  0  0  0  0  0
  -36.7588    5.2996  -42.8856 C   0  0  0  0  0  0  0  0  0  0  0  0
  -35.4942    6.0361  -43.3362 C   0  0  0  0  0  0  0  0  0  0  0  0
  -34.3152    5.0591  -43.3322 C   0  0  0  0  0  0  0  0  0  0  0  0
  -34.6361    3.8762  -44.2486 C   0  0  0  0  0  0  0  0  0  0  0  0
  -35.2164    7.1445  -42.4131 N   0  0  0  0  0  0  0  0  0  0  0  0
  -34.9773    6.5703  -40.8202 X   0  0  0  0  0  0  0  0  0  0  0  0
  1  2  1  0  0  0  0
  2  3  1  0  0  0  0
  2  4  1  0  0  0  0
  2  5  1  0  0  0  0
  5  6  1  0  0  0  0
  5 10  1  0  0  0  0
  6  7  1  0  0  0  0
  7  8  1  0  0  0  0
  8  9  1  0  0  0  0
  8 11  1  0  0  0  0
  9 10  1  0  0  0  0
 11 12  1  0  0  0  0
M  END
> <Index>
3322

> <PropertyFieldDistance>
nan

$$$$
7533650
BBcorina  12272117083D 1   1.00000     0.00000 
CORINA 4.3.0 0026  30.10.2019
 13 13  0  0  0  0  0  0  0  0999 V2000
  -36.9597   -1.8285  -47.8178 O   0  0  0  0  0  0  0  0  0  0  0  0
  -38.1863   -1.1402  -47.5655 C   0  0  0  0  0  0  0  0  0  0  0  0
  -38.0630   -0.3373  -46.2688 C   0  0  0  0  0  0  0  0  0  0  0  0
  -37.0540    0.7166  -46.4395 N   0  0  0  0  0  0  0  0  0  0  0  0
  -36.9083    1.5097  -45.2116 C   0  0  0  0  0  0  0  0  0  0  0  0
  -35.8513    2.5946  -45.4276 C   0  0  0  0  0  0  0  0  0  0  0  0
  -35.7056    3.3877  -44.1998 N   0  0  0  0  0  0  0  0  0  0  0  0
  -36.9305    4.1521  -43.9179 C   0  0  0  0  0  0  0  0  0  0  0  0
  -36.7563    4.9154  -42.6022 C   0  0  0  0  0  0  0  0  0  0  0  0
  -35.6022    5.7551  -42.6923 O   0  0  0  0  0  0  0  0  0  0  0  0
  -34.3921    5.0431  -42.9652 C   0  0  0  0  0  0  0  0  0  0  0  0
  -34.5413    4.2811  -44.2847 C   0  0  0  0  0  0  0  0  0  0  0  0
  -35.5532    0.0553  -46.9236 X   0  0  0  0  0  0  0  0  0  0  0  0
  1  2  1  0  0  0  0
  2  3  1  0  0  0  0
  3  4  1  0  0  0  0
  4  5  1  0  0  0  0
  4 13  1  0  0  0  0
  5  6  1  0  0  0  0
  6  7  1  0  0  0  0
  7  8  1  0  0  0  0
  7 12  1  0  0  0  0
  8  9  1  0  0  0  0
  9 10  1  0  0  0  0
 10 11  1  0  0  0  0
 11 12  1  0  0  0  0
M  END
> <Index>
3323

> <PropertyFieldDistance>
nan

$$$$
1126164
BBcorina  12272117083D 1   1.00000     0.00000 
CORINA 4.3.0 0026  30.10.2019
 12 12  0  0  0  0  0  0  0  0999 V2000
  -36.8419    1.2232  -46.8645 C   0  0  0  0  0  0  0  0  0  0  0  0
  -35.8747    2.0290  -45.9951 C   0  0  0  0  0  0  0  0  0  0  0  0
  -36.6200    2.6119  -44.8222 C   0  0  0  0  0  0  0  0  0  0  0  0
  -37.8079    2.4032  -44.6943 O   0  0  0  0  0  0  0  0  0  0  0  0
  -35.9666    3.3649  -43.9153 N   0  0  0  0  0  0  0  0  0  0  0  0
  -36.7119    3.9094  -42.8010 C   0  0  0  0  0  0  0  0  0  0  0  0
  -37.2551    5.3110  -43.1770 C   0  0  0  0  0  0  0  0  0  0  0  0
  -36.1364    6.2680  -43.2744 C   0  0  0  0  0  0  0  0  0  0  0  0
  -35.1569    5.9479  -44.3125 N   0  0  0  0  0  0  0  0  0  0  0  0
  -34.1378    5.0590  -43.7960 C   0  0  0  0  0  0  0  0  0  0  0  0
  -34.5194    3.5986  -44.1025 C   0  0  0  0  0  0  0  0  0  0  0  0
  -34.4601    7.3704  -44.9570 X   0  0  0  0  0  0  0  0  0  0  0  0
  1  2  1  0  0  0  0
  2  3  1  0  0  0  0
  3  4  2  0  0  0  0
  3  5  1  0  0  0  0
  5  6  1  0  0  0  0
  5 11  1  0  0  0  0
  6  7  1  0  0  0  0
  7  8  1  0  0  0  0
  8  9  1  0  0  0  0
  9 10  1  0  0  0  0
  9 12  1  0  0  0  0
 10 11  1  0  0  0  0
M  END
> <Index>
3324

> <PropertyFieldDistance>
nan

$$$$
1199846
BBcorina  12272117083D 1   1.00000     0.00000 
CORINA 4.3.0 0026  30.10.2019
 15 16  0  0  0  0  0  0  0  0999 V2000
  -35.0569    5.1291  -42.1714 N   0  0  0  0  0  0  0  0  0  0  0  0
  -36.4830    5.3359  -42.1221 C   0  0  0  0  0  0  0  0  0  0  0  0
  -37.2731    4.0114  -42.0705 C   0  0  0  0  0  0  0  0  0  0  0  0
  -36.6731    2.9510  -43.0175 C   0  0  0  0  0  0  0  0  0  0  0  0
  -36.2671    3.5079  -44.2847 N   0  0  0  0  0  0  0  0  0  0  0  0
  -36.5500    2.5747  -45.3835 C   0  0  0  0  0  0  0  0  0  0  0  0
  -35.5507    1.4169  -45.3392 C   0  0  0  0  0  0  0  0  0  0  0  0
  -35.8281    0.5506  -44.1090 C   0  0  0  0  0  0  0  0  0  0  0  0
  -34.8288   -0.6071  -44.0648 C   0  0  0  0  0  0  0  0  0  0  0  0
  -34.9750   -1.4556  -45.3295 C   0  0  0  0  0  0  0  0  0  0  0  0
  -34.6977   -0.5893  -46.5598 C   0  0  0  0  0  0  0  0  0  0  0  0
  -35.6970    0.5684  -46.6040 C   0  0  0  0  0  0  0  0  0  0  0  0
  -34.8290    3.8585  -44.2433 C   0  0  0  0  0  0  0  0  0  0  0  0
  -34.5948    5.1380  -43.5782 C   0  0  0  0  0  0  0  0  0  0  0  0
  -34.2341    6.3105  -41.2486 X   0  0  0  0  0  0  0  0  0  0  0  0
  1  2  1  0  0  0  0
  1 14  1  0  0  0  0
  1 15  1  0  0  0  0
  2  3  1  0  0  0  0
  3  4  1  0  0  0  0
  4  5  1  0  0  0  0
  5  6  1  0  0  0  0
  5 13  1  0  0  0  0
  6  7  1  0  0  0  0
  7  8  1  0  0  0  0
  7 12  1  0  0  0  0
  8  9  1  0  0  0  0
  9 10  1  0  0  0  0
 10 11  1  0  0  0  0
 11 12  1  0  0  0  0
 13 14  1  0  0  0  0
M  END
> <Index>
3325

> <PropertyFieldDistance>
nan

$$$$
1127948
BBcorina  12272117083D 1   1.00000     0.00000 
CORINA 4.3.0 0026  30.10.2019
 14 15  0  0  0  0  0  0  0  0999 V2000
  -35.1222    0.1445  -47.5581 N   0  0  0  0  0  0  0  0  0  0  0  0
  -35.8764    0.6472  -46.4954 C   0  0  0  0  0  0  0  0  0  0  0  0
  -36.9209   -0.1023  -45.9681 C   0  0  0  0  0  0  0  0  0  0  0  0
  -37.6673    0.3940  -44.9165 C   0  0  0  0  0  0  0  0  0  0  0  0
  -37.3780    1.6362  -44.3860 C   0  0  0  0  0  0  0  0  0  0  0  0
  -36.3352    2.3915  -44.9094 C   0  0  0  0  0  0  0  0  0  0  0  0
  -35.5877    1.8987  -45.9693 C   0  0  0  0  0  0  0  0  0  0  0  0
  -36.0437    3.6475  -44.3727 N   0  0  0  0  0  0  0  0  0  0  0  0
  -36.9576    3.9736  -43.2682 C   0  0  0  0  0  0  0  0  0  0  0  0
  -36.6423    5.3792  -42.7500 C   0  0  0  0  0  0  0  0  0  0  0  0
  -35.2700    5.4391  -42.3517 O   0  0  0  0  0  0  0  0  0  0  0  0
  -34.3518    5.1271  -43.4039 C   0  0  0  0  0  0  0  0  0  0  0  0
  -34.6440    3.7189  -43.9289 C   0  0  0  0  0  0  0  0  0  0  0  0
  -35.4840   -1.3941  -48.2109 X   0  0  0  0  0  0  0  0  0  0  0  0
  1  2  1  0  0  0  0
  1 14  1  0  0  0  0
  2  3  2  0  0  0  0
  2  7  1  0  0  0  0
  3  4  1  0  0  0  0
  4  5  2  0  0  0  0
  5  6  1  0  0  0  0
  6  7  2  0  0  0  0
  6  8  1  0  0  0  0
  8  9  1  0  0  0  0
  8 13  1  0  0  0  0
  9 10  1  0  0  0  0
 10 11  1  0  0  0  0
 11 12  1  0  0  0  0
 12 13  1  0  0  0  0
M  END
> <Index>
3333

> <PropertyFieldDistance>
nan

$$$$
1950876
BBcorina  12272117083D 1   1.00000     0.00000 
CORINA 4.3.0 0026  30.10.2019
 13 13  0  0  0  0  0  0  0  0999 V2000
  -35.9822    7.3500  -37.7883 C   0  0  0  0  0  0  0  0  0  0  0  0
  -35.1413    7.3737  -39.0663 C   0  0  0  0  0  0  0  0  0  0  0  0
  -33.7045    6.9619  -38.7392 C   0  0  0  0  0  0  0  0  0  0  0  0
  -35.7092    6.4353  -40.0435 N   0  0  0  0  0  0  0  0  0  0  0  0
  -37.1201    6.7443  -40.3116 C   0  0  0  0  0  0  0  0  0  0  0  0
  -34.9259    6.4312  -41.2862 C   0  0  0  0  0  0  0  0  0  0  0  0
  -35.2462    5.1674  -42.0869 C   0  0  0  0  0  0  0  0  0  0  0  0
  -36.6792    5.2476  -42.6203 C   0  0  0  0  0  0  0  0  0  0  0  0
  -36.9723    4.0086  -43.4694 C   0  0  0  0  0  0  0  0  0  0  0  0
  -36.0192    3.9414  -44.5845 N   0  0  0  0  0  0  0  0  0  0  0  0
  -34.6396    3.8164  -44.0971 C   0  0  0  0  0  0  0  0  0  0  0  0
  -34.2770    5.0496  -43.2664 C   0  0  0  0  0  0  0  0  0  0  0  0
  -36.4110    2.6622  -45.6495 X   0  0  0  0  0  0  0  0  0  0  0  0
  1  2  1  0  0  0  0
  2  3  1  0  0  0  0
  2  4  1  0  0  0  0
  4  5  1  0  0  0  0
  4  6  1  0  0  0  0
  6  7  1  0  0  0  0
  7  8  1  0  0  0  0
  7 12  1  0  0  0  0
  8  9  1  0  0  0  0
  9 10  1  0  0  0  0
 10 11  1  0  0  0  0
 10 13  1  0  0  0  0
 11 12  1  0  0  0  0
M  END
> <Index>
3340

> <PropertyFieldDistance>
nan

$$$$
1042390
BBcorina  12272117083D 1   1.00000     0.00000 
CORINA 4.3.0 0026  30.10.2019
 12 12  0  0  0  0  0  0  0  0999 V2000
  -36.1569    0.7161  -46.7396 C   0  0  0  0  0  0  0  0  0  0  0  0
  -35.5846    1.5784  -45.6127 C   0  0  0  0  0  0  0  0  0  0  0  0
  -35.1118    0.6769  -44.4705 C   0  0  0  0  0  0  0  0  0  0  0  0
  -33.9907   -0.1521  -44.9330 N   0  0  0  0  0  0  0  0  0  0  0  0
  -36.6675    2.5286  -45.0976 C   0  0  0  0  0  0  0  0  0  0  0  0
  -36.1050    3.3890  -44.0481 N   0  0  0  0  0  0  0  0  0  0  0  0
  -37.0920    4.3761  -43.5918 C   0  0  0  0  0  0  0  0  0  0  0  0
  -36.5239    5.1556  -42.4037 C   0  0  0  0  0  0  0  0  0  0  0  0
  -35.2321    5.8579  -42.8309 C   0  0  0  0  0  0  0  0  0  0  0  0
  -34.2391    4.8128  -43.3472 C   0  0  0  0  0  0  0  0  0  0  0  0
  -34.8733    4.0432  -44.5080 C   0  0  0  0  0  0  0  0  0  0  0  0
  -33.4305   -1.1771  -43.6842 X   0  0  0  0  0  0  0  0  0  0  0  0
  1  2  1  0  0  0  0
  2  3  1  0  0  0  0
  2  5  1  0  0  0  0
  3  4  1  0  0  0  0
  4 12  1  0  0  0  0
  5  6  1  0  0  0  0
  6  7  1  0  0  0  0
  6 11  1  0  0  0  0
  7  8  1  0  0  0  0
  8  9  1  0  0  0  0
  9 10  1  0  0  0  0
 10 11  1  0  0  0  0
M  END
> <Index>
3341

> <PropertyFieldDistance>
nan

$$$$
2027148
BBcorina  12272117083D 1   1.00000     0.00000 
CORINA 4.3.0 0026  30.10.2019
 13 14  0  0  0  0  0  0  0  0999 V2000
  -35.9480    3.4664  -44.1723 N   0  0  0  0  0  0  0  0  0  0  0  0
  -37.0290    4.3869  -43.7977 C   0  0  0  0  0  0  0  0  0  0  0  0
  -36.6587    5.1099  -42.5007 C   0  0  0  0  0  0  0  0  0  0  0  0
  -35.3534    5.8832  -42.7080 C   0  0  0  0  0  0  0  0  0  0  0  0
  -34.2559    4.9088  -43.1443 C   0  0  0  0  0  0  0  0  0  0  0  0
  -34.6958    4.1916  -44.4226 C   0  0  0  0  0  0  0  0  0  0  0  0
  -33.0174    5.6484  -43.4000 N   0  0  0  0  0  0  0  0  0  0  0  0
  -31.7393    5.4365  -42.7043 C   0  0  0  0  0  0  0  0  0  0  0  0
  -30.7910    6.4634  -43.3532 C   0  0  0  0  0  0  0  0  0  0  0  0
  -31.6355    7.1448  -44.3458 N   0  0  0  0  0  0  0  0  0  0  0  0
  -32.8679    6.6211  -44.3087 C   0  0  0  0  0  0  0  0  0  0  0  0
  -33.7701    6.9973  -45.0317 O   0  0  0  0  0  0  0  0  0  0  0  0
  -36.3899    2.5210  -45.5270 X   0  0  0  0  0  0  0  0  0  0  0  0
  1  2  1  0  0  0  0
  1  6  1  0  0  0  0
  1 13  1  0  0  0  0
  2  3  1  0  0  0  0
  3  4  1  0  0  0  0
  4  5  1  0  0  0  0
  5  6  1  0  0  0  0
  5  7  1  0  0  0  0
  7  8  1  0  0  0  0
  7 11  1  0  0  0  0
  8  9  1  0  0  0  0
  9 10  1  0  0  0  0
 10 11  1  0  0  0  0
 11 12  2  0  0  0  0
M  END
> <Index>
3350

> <PropertyFieldDistance>
nan

$$$$
1041584
BBcorina  12272117083D 1   1.00000     0.00000 
CORINA 4.3.0 0026  30.10.2019
 14 15  0  0  0  0  0  0  0  0999 V2000
  -35.2220    5.5424  -42.5494 N   0  0  0  0  0  0  0  0  0  0  0  0
  -36.5310    4.9235  -42.3012 C   0  0  0  0  0  0  0  0  0  0  0  0
  -37.1579    4.5092  -43.6366 C   0  0  0  0  0  0  0  0  0  0  0  0
  -36.1975    3.6632  -44.3612 N   0  0  0  0  0  0  0  0  0  0  0  0
  -34.8213    4.1559  -44.5248 C   0  0  0  0  0  0  0  0  0  0  0  0
  -34.2879    4.5867  -43.1595 C   0  0  0  0  0  0  0  0  0  0  0  0
  -36.5671    2.4658  -44.8572 C   0  0  0  0  0  0  0  0  0  0  0  0
  -37.7238    2.1006  -44.7664 O   0  0  0  0  0  0  0  0  0  0  0  0
  -35.5711    1.5999  -45.5088 C   0  0  0  0  0  0  0  0  0  0  0  0
  -34.5956    2.0828  -46.4582 C   0  0  0  0  0  0  0  0  0  0  0  0
  -33.7990    1.1256  -46.9185 C   0  0  0  0  0  0  0  0  0  0  0  0
  -34.2150   -0.4212  -46.2011 S   0  0  0  0  0  0  0  0  0  0  0  0
  -35.4752    0.2627  -45.2794 C   0  0  0  0  0  0  0  0  0  0  0  0
  -34.5727    6.2007  -41.1110 X   0  0  0  0  0  0  0  0  0  0  0  0
  1  2  1  0  0  0  0
  1  6  1  0  0  0  0
  1 14  1  0  0  0  0
  2  3  1  0  0  0  0
  3  4  1  0  0  0  0
  4  5  1  0  0  0  0
  4  7  1  0  0  0  0
  5  6  1  0  0  0  0
  7  8  2  0  0  0  0
  7  9  1  0  0  0  0
  9 10  1  0  0  0  0
  9 13  2  0  0  0  0
 10 11  2  0  0  0  0
 11 12  1  0  0  0  0
 12 13  1  0  0  0  0
M  END
> <Index>
3353

> <PropertyFieldDistance>
nan

$$$$
1044248
BBcorina  12272117083D 1   1.00000     0.00000 
CORINA 4.3.0 0026  30.10.2019
 11 11  0  0  0  0  0  0  0  0999 V2000
  -35.6176    0.1576  -45.4958 C   0  0  0  0  0  0  0  0  0  0  0  0
  -35.2743    1.5144  -45.1088 O   0  0  0  0  0  0  0  0  0  0  0  0
  -36.2667    2.2788  -44.6153 C   0  0  0  0  0  0  0  0  0  0  0  0
  -37.3889    1.8246  -44.5109 O   0  0  0  0  0  0  0  0  0  0  0  0
  -36.0166    3.5495  -44.2423 N   0  0  0  0  0  0  0  0  0  0  0  0
  -37.0874    4.4037  -43.7065 C   0  0  0  0  0  0  0  0  0  0  0  0
  -36.6071    5.0157  -42.3863 C   0  0  0  0  0  0  0  0  0  0  0  0
  -35.3220    5.6934  -42.6033 N   0  0  0  0  0  0  0  0  0  0  0  0
  -34.2808    4.7422  -43.0145 C   0  0  0  0  0  0  0  0  0  0  0  0
  -34.6644    4.1171  -44.3547 C   0  0  0  0  0  0  0  0  0  0  0  0
  -34.8436    6.5609  -41.2094 X   0  0  0  0  0  0  0  0  0  0  0  0
  1  2  1  0  0  0  0
  2  3  1  0  0  0  0
  3  4  2  0  0  0  0
  3  5  1  0  0  0  0
  5  6  1  0  0  0  0
  5 10  1  0  0  0  0
  6  7  1  0  0  0  0
  7  8  1  0  0  0  0
  8  9  1  0  0  0  0
  8 11  1  0  0  0  0
  9 10  1  0  0  0  0
M  END
> <Index>
3381

> <PropertyFieldDistance>
nan

$$$$
1297848
BBcorina  12272117083D 1   1.00000     0.00000 
CORINA 4.3.0 0026  30.10.2019
 14 14  0  0  0  0  0  0  0  0999 V2000
  -34.2123    7.2539  -40.6706 C   0  0  0  0  0  0  0  0  0  0  0  0
  -34.8815    7.2333  -42.3565 S   0  0  0  0  0  0  0  0  0  0  0  0
  -33.8643    7.5392  -43.3005 O   0  0  0  0  0  0  0  0  0  0  0  0
  -36.1424    7.8871  -42.4005 O   0  0  0  0  0  0  0  0  0  0  0  0
  -35.2369    5.6411  -42.6405 N   0  0  0  0  0  0  0  0  0  0  0  0
  -36.5613    5.0929  -42.3109 C   0  0  0  0  0  0  0  0  0  0  0  0
  -37.1056    4.3612  -43.5424 C   0  0  0  0  0  0  0  0  0  0  0  0
  -36.1191    3.3718  -43.9961 N   0  0  0  0  0  0  0  0  0  0  0  0
  -36.6707    2.5313  -45.0672 C   0  0  0  0  0  0  0  0  0  0  0  0
  -35.5511    1.6892  -45.6822 C   0  0  0  0  0  0  0  0  0  0  0  0
  -36.1026    0.8487  -46.7534 N   0  0  0  0  0  0  0  0  0  0  0  0
  -34.8724    4.0201  -44.4247 C   0  0  0  0  0  0  0  0  0  0  0  0
  -34.2387    4.7391  -43.2348 C   0  0  0  0  0  0  0  0  0  0  0  0
  -34.8818   -0.1111  -47.4694 X   0  0  0  0  0  0  0  0  0  0  0  0
  1  2  1  0  0  0  0
  2  3  2  0  0  0  0
  2  4  2  0  0  0  0
  2  5  1  0  0  0  0
  5  6  1  0  0  0  0
  5 13  1  0  0  0  0
  6  7  1  0  0  0  0
  7  8  1  0  0  0  0
  8  9  1  0  0  0  0
  8 12  1  0  0  0  0
  9 10  1  0  0  0  0
 10 11  1  0  0  0  0
 11 14  1  0  0  0  0
 12 13  1  0  0  0  0
M  END
> <Index>
3391

> <PropertyFieldDistance>
nan

$$$$
1056018
BBcorina  12272117083D 1   1.00000     0.00000 
CORINA 4.3.0 0026  30.10.2019
 11 11  0  0  0  0  0  0  0  0999 V2000
  -36.0173    3.5927  -44.4913 N   0  0  0  0  0  0  0  0  0  0  0  0
  -36.3933    2.1751  -44.5752 C   0  0  0  0  0  0  0  0  0  0  0  0
  -36.1059    1.6538  -45.9846 C   0  0  0  0  0  0  0  0  0  0  0  0
  -37.0090    2.3732  -46.9883 C   0  0  0  0  0  0  0  0  0  0  0  0
  -37.0208    1.6002  -48.3088 C   0  0  0  0  0  0  0  0  0  0  0  0
  -35.7123    1.8540  -49.0601 C   0  0  0  0  0  0  0  0  0  0  0  0
  -34.5869    1.0459  -48.4110 C   0  0  0  0  0  0  0  0  0  0  0  0
  -35.0832   -0.3693  -48.1084 C   0  0  0  0  0  0  0  0  0  0  0  0
  -35.1513   -0.5732  -46.5937 C   0  0  0  0  0  0  0  0  0  0  0  0
  -36.3798    0.1496  -46.0374 C   0  0  0  0  0  0  0  0  0  0  0  0
  -36.3229    4.2164  -42.9287 X   0  0  0  0  0  0  0  0  0  0  0  0
  1  2  1  0  0  0  0
  1 11  1  0  0  0  0
  2  3  1  0  0  0  0
  3  4  1  0  0  0  0
  3 10  1  0  0  0  0
  4  5  1  0  0  0  0
  5  6  1  0  0  0  0
  6  7  1  0  0  0  0
  7  8  1  0  0  0  0
  8  9  1  0  0  0  0
  9 10  1  0  0  0  0
M  END
> <Index>
3394

> <PropertyFieldDistance>
nan

$$$$
1161834
BBcorina  12272117083D 1   1.00000     0.00000 
CORINA 4.3.0 0026  30.10.2019
 13 13  0  0  0  0  0  0  0  0999 V2000
  -36.7334    1.8154  -47.9290 C   0  0  0  0  0  0  0  0  0  0  0  0
  -36.1446    0.8768  -46.8738 C   0  0  0  0  0  0  0  0  0  0  0  0
  -37.2439   -0.0436  -46.3396 C   0  0  0  0  0  0  0  0  0  0  0  0
  -35.0348    0.0331  -47.5041 C   0  0  0  0  0  0  0  0  0  0  0  0
  -35.5665    1.7022  -45.7226 C   0  0  0  0  0  0  0  0  0  0  0  0
  -36.6764    2.5459  -45.0923 C   0  0  0  0  0  0  0  0  0  0  0  0
  -36.1213    3.3384  -43.9870 N   0  0  0  0  0  0  0  0  0  0  0  0
  -37.0937    4.3323  -43.5114 C   0  0  0  0  0  0  0  0  0  0  0  0
  -36.5085    5.0811  -42.3116 C   0  0  0  0  0  0  0  0  0  0  0  0
  -35.2497    5.7277  -42.7076 N   0  0  0  0  0  0  0  0  0  0  0  0
  -34.2773    4.7339  -43.1833 C   0  0  0  0  0  0  0  0  0  0  0  0
  -34.8624    3.9851  -44.3830 C   0  0  0  0  0  0  0  0  0  0  0  0
  -34.6035    6.6503  -41.4210 X   0  0  0  0  0  0  0  0  0  0  0  0
  1  2  1  0  0  0  0
  2  3  1  0  0  0  0
  2  4  1  0  0  0  0
  2  5  1  0  0  0  0
  5  6  1  0  0  0  0
  6  7  1  0  0  0  0
  7  8  1  0  0  0  0
  7 12  1  0  0  0  0
  8  9  1  0  0  0  0
  9 10  1  0  0  0  0
 10 11  1  0  0  0  0
 10 13  1  0  0  0  0
 11 12  1  0  0  0  0
M  END
> <Index>
3397

> <PropertyFieldDistance>
nan

$$$$
1159788
BBcorina  12272117083D 1   1.00000     0.00000 
CORINA 4.3.0 0026  30.10.2019
 13 14  0  0  0  0  0  0  0  0999 V2000
  -35.9479    3.4664  -44.1722 N   0  0  0  0  0  0  0  0  0  0  0  0
  -37.0290    4.3869  -43.7978 C   0  0  0  0  0  0  0  0  0  0  0  0
  -36.6587    5.1099  -42.5007 C   0  0  0  0  0  0  0  0  0  0  0  0
  -35.3534    5.8832  -42.7080 C   0  0  0  0  0  0  0  0  0  0  0  0
  -34.2558    4.9088  -43.1443 C   0  0  0  0  0  0  0  0  0  0  0  0
  -34.6958    4.1916  -44.4227 C   0  0  0  0  0  0  0  0  0  0  0  0
  -34.9519    6.5486  -41.4169 C   0  0  0  0  0  0  0  0  0  0  0  0
  -35.6412    6.4180  -40.4274 O   0  0  0  0  0  0  0  0  0  0  0  0
  -33.8271    7.2888  -41.3616 N   0  0  0  0  0  0  0  0  0  0  0  0
  -33.4367    7.9358  -40.1064 C   0  0  0  0  0  0  0  0  0  0  0  0
  -31.9526    8.2478  -39.9042 C   0  0  0  0  0  0  0  0  0  0  0  0
  -32.9420    9.3817  -40.1810 C   0  0  0  0  0  0  0  0  0  0  0  0
  -36.3897    2.5209  -45.5268 X   0  0  0  0  0  0  0  0  0  0  0  0
  1  2  1  0  0  0  0
  1  6  1  0  0  0  0
  1 13  1  0  0  0  0
  2  3  1  0  0  0  0
  3  4  1  0  0  0  0
  4  5  1  0  0  0  0
  4  7  1  0  0  0  0
  5  6  1  0  0  0  0
  7  8  2  0  0  0  0
  7  9  1  0  0  0  0
  9 10  1  0  0  0  0
 10 11  1  0  0  0  0
 10 12  1  0  0  0  0
 11 12  1  0  0  0  0
M  END
> <Index>
3402

> <PropertyFieldDistance>
nan

$$$$
12430766
BBcorina  12272117083D 1   1.00000     0.00000 
CORINA 4.3.0 0026  30.10.2019
 13 13  0  0  0  0  0  0  0  0999 V2000
  -36.8150    8.9309  -44.3461 O   0  0  0  0  0  0  0  0  0  0  0  0
  -36.5675    7.9836  -43.3052 C   0  0  0  0  0  0  0  0  0  0  0  0
  -35.5546    6.9449  -43.7911 C   0  0  0  0  0  0  0  0  0  0  0  0
  -35.3534    5.8832  -42.7080 C   0  0  0  0  0  0  0  0  0  0  0  0
  -34.9467    6.5602  -41.3977 C   0  0  0  0  0  0  0  0  0  0  0  0
  -33.6753    7.3815  -41.6212 C   0  0  0  0  0  0  0  0  0  0  0  0
  -33.2983    8.0182  -40.3987 O   0  0  0  0  0  0  0  0  0  0  0  0
  -36.6587    5.1099  -42.5007 C   0  0  0  0  0  0  0  0  0  0  0  0
  -37.0290    4.3869  -43.7977 C   0  0  0  0  0  0  0  0  0  0  0  0
  -35.9479    3.4663  -44.1723 N   0  0  0  0  0  0  0  0  0  0  0  0
  -34.6959    4.1916  -44.4227 C   0  0  0  0  0  0  0  0  0  0  0  0
  -34.2559    4.9088  -43.1443 C   0  0  0  0  0  0  0  0  0  0  0  0
  -36.3899    2.5210  -45.5269 X   0  0  0  0  0  0  0  0  0  0  0  0
  1  2  1  0  0  0  0
  2  3  1  0  0  0  0
  3  4  1  0  0  0  0
  4  5  1  0  0  0  0
  4  8  1  0  0  0  0
  4 12  1  0  0  0  0
  5  6  1  0  0  0  0
  6  7  1  0  0  0  0
  8  9  1  0  0  0  0
  9 10  1  0  0  0  0
 10 11  1  0  0  0  0
 10 13  1  0  0  0  0
 11 12  1  0  0  0  0
M  END
> <Index>
3463

> <PropertyFieldDistance>
nan

$$$$
3048430
BBcorina  12272117083D 1   1.00000     0.00000 
CORINA 4.3.0 0026  30.10.2019
 14 15  0  0  0  0  0  0  0  0999 V2000
  -34.8281    6.9540  -42.1297 N   0  0  0  0  0  0  0  0  0  0  0  0
  -35.1651    5.5547  -42.4241 C   0  0  0  0  0  0  0  0  0  0  0  0
  -36.6444    5.4542  -42.8062 C   0  0  0  0  0  0  0  0  0  0  0  0
  -36.9747    4.0050  -43.1705 C   0  0  0  0  0  0  0  0  0  0  0  0
  -36.1305    3.5765  -44.2930 N   0  0  0  0  0  0  0  0  0  0  0  0
  -36.5153    2.2379  -44.7601 C   0  0  0  0  0  0  0  0  0  0  0  0
  -35.8041    1.9335  -46.0534 C   0  0  0  0  0  0  0  0  0  0  0  0
  -34.6541    1.2545  -46.1036 C   0  0  0  0  0  0  0  0  0  0  0  0
  -34.1707    1.1308  -47.7934 S   0  0  0  0  0  0  0  0  0  0  0  0
  -35.5682    1.9956  -48.2652 C   0  0  0  0  0  0  0  0  0  0  0  0
  -36.2652    2.3148  -47.2275 N   0  0  0  0  0  0  0  0  0  0  0  0
  -34.7072    3.6195  -43.9337 C   0  0  0  0  0  0  0  0  0  0  0  0
  -34.3093    5.0572  -43.5922 C   0  0  0  0  0  0  0  0  0  0  0  0
  -35.2136    7.9682  -43.4515 X   0  0  0  0  0  0  0  0  0  0  0  0
  1  2  1  0  0  0  0
  1 14  1  0  0  0  0
  2  3  1  0  0  0  0
  2 13  1  0  0  0  0
  3  4  1  0  0  0  0
  4  5  1  0  0  0  0
  5  6  1  0  0  0  0
  5 12  1  0  0  0  0
  6  7  1  0  0  0  0
  7  8  2  0  0  0  0
  7 11  1  0  0  0  0
  8  9  1  0  0  0  0
  9 10  1  0  0  0  0
 10 11  2  0  0  0  0
 12 13  1  0  0  0  0
M  END
> <Index>
3481

> <PropertyFieldDistance>
nan

$$$$
4836936
BBcorina  12272117083D 1   1.00000     0.00000 
CORINA 4.3.0 0026  30.10.2019
  9  9  0  0  0  0  0  0  0  0999 V2000
  -36.3511    2.2197  -44.6625 C   0  0  0  0  0  0  0  0  0  0  0  0
  -36.0474    3.6486  -44.5075 N   0  0  0  0  0  0  0  0  0  0  0  0
  -37.0948    4.3295  -43.7244 C   0  0  0  0  0  0  0  0  0  0  0  0
  -36.4026    4.9957  -42.5168 C   0  0  0  0  0  0  0  0  0  0  0  0
  -34.9315    5.1341  -42.9899 C   0  0  0  0  0  0  0  0  0  0  0  0
  -34.7493    3.8437  -43.8272 C   0  0  0  0  0  0  0  0  0  0  0  0
  -33.6312    4.0266  -44.8555 C   0  0  0  0  0  0  0  0  0  0  0  0
  -33.5823    2.8542  -45.7394 N   0  0  0  0  0  0  0  0  0  0  0  0
  -32.3433    3.0181  -46.9065 X   0  0  0  0  0  0  0  0  0  0  0  0
  1  2  1  0  0  0  0
  2  3  1  0  0  0  0
  2  6  1  0  0  0  0
  3  4  1  0  0  0  0
  4  5  1  0  0  0  0
  5  6  1  0  0  0  0
  6  7  1  0  0  0  0
  7  8  1  0  0  0  0
  8  9  1  0  0  0  0
M  END
> <Index>
3482

> <PropertyFieldDistance>
nan

$$$$
5735032
BBcorina  12272117083D 1   1.00000     0.00000 
CORINA 4.3.0 0026  30.10.2019
 11 11  0  0  0  0  0  0  0  0999 V2000
  -35.6993    8.1260  -39.8359 C   0  0  0  0  0  0  0  0  0  0  0  0
  -35.4942    7.8352  -41.3239 C   0  0  0  0  0  0  0  0  0  0  0  0
  -34.5078    8.8471  -41.9102 C   0  0  0  0  0  0  0  0  0  0  0  0
  -34.9728    6.5142  -41.4836 O   0  0  0  0  0  0  0  0  0  0  0  0
  -35.3535    5.8833  -42.7079 C   0  0  0  0  0  0  0  0  0  0  0  0
  -36.6585    5.1099  -42.5008 C   0  0  0  0  0  0  0  0  0  0  0  0
  -37.0291    4.3869  -43.7977 C   0  0  0  0  0  0  0  0  0  0  0  0
  -35.9480    3.4664  -44.1723 N   0  0  0  0  0  0  0  0  0  0  0  0
  -34.6958    4.1916  -44.4226 C   0  0  0  0  0  0  0  0  0  0  0  0
  -34.2559    4.9088  -43.1442 C   0  0  0  0  0  0  0  0  0  0  0  0
  -36.3899    2.5211  -45.5270 X   0  0  0  0  0  0  0  0  0  0  0  0
  1  2  1  0  0  0  0
  2  3  1  0  0  0  0
  2  4  1  0  0  0  0
  4  5  1  0  0  0  0
  5  6  1  0  0  0  0
  5 10  1  0  0  0  0
  6  7  1  0  0  0  0
  7  8  1  0  0  0  0
  8  9  1  0  0  0  0
  8 11  1  0  0  0  0
  9 10  1  0  0  0  0
M  END
> <Index>
3487

> <PropertyFieldDistance>
nan

$$$$
1080256
BBcorina  12272117083D 1   1.00000     0.00000 
CORINA 4.3.0 0026  30.10.2019
 15 16  0  0  0  0  0  0  0  0999 V2000
  -37.4951   -0.8862  -47.2769 C   0  0  0  0  0  0  0  0  0  0  0  0
  -37.0771    0.2557  -46.3869 C   0  0  0  0  0  0  0  0  0  0  0  0
  -35.9541    0.9993  -46.7002 C   0  0  0  0  0  0  0  0  0  0  0  0
  -35.5654    2.0431  -45.8838 C   0  0  0  0  0  0  0  0  0  0  0  0
  -36.3101    2.3528  -44.7528 C   0  0  0  0  0  0  0  0  0  0  0  0
  -37.4407    1.6071  -44.4439 C   0  0  0  0  0  0  0  0  0  0  0  0
  -37.8206    0.5610  -45.2615 C   0  0  0  0  0  0  0  0  0  0  0  0
  -35.9227    3.4112  -43.9278 N   0  0  0  0  0  0  0  0  0  0  0  0
  -37.0217    4.3882  -43.7679 C   0  0  0  0  0  0  0  0  0  0  0  0
  -36.8386    5.1032  -42.4528 C   0  0  0  0  0  0  0  0  0  0  0  0
  -36.0334    6.4031  -42.6086 C   0  0  0  0  0  0  0  0  0  0  0  0
  -34.8853    6.2505  -43.5309 N   0  0  0  0  0  0  0  0  0  0  0  0
  -34.1637    5.0086  -43.3659 C   0  0  0  0  0  0  0  0  0  0  0  0
  -34.7178    3.9739  -44.3659 C   0  0  0  0  0  0  0  0  0  0  0  0
  -33.8298    7.5915  -43.4226 X   0  0  0  0  0  0  0  0  0  0  0  0
  1  2  1  0  0  0  0
  2  3  2  0  0  0  0
  2  7  1  0  0  0  0
  3  4  1  0  0  0  0
  4  5  2  0  0  0  0
  5  6  1  0  0  0  0
  5  8  1  0  0  0  0
  6  7  2  0  0  0  0
  8  9  1  0  0  0  0
  8 14  1  0  0  0  0
  9 10  1  0  0  0  0
 10 11  1  0  0  0  0
 11 12  1  0  0  0  0
 12 13  1  0  0  0  0
 12 15  1  0  0  0  0
 13 14  1  0  0  0  0
M  END
> <Index>
3502

> <PropertyFieldDistance>
nan

$$$$
4836940
BBcorina  12272117083D 1   1.00000     0.00000 
CORINA 4.3.0 0026  30.10.2019
 12 12  0  0  0  0  0  0  0  0999 V2000
  -36.4260    9.4494  -39.5024 C   0  0  0  0  0  0  0  0  0  0  0  0
  -35.5915    8.2700  -39.7685 N   0  0  0  0  0  0  0  0  0  0  0  0
  -35.6475    7.3219  -38.6479 C   0  0  0  0  0  0  0  0  0  0  0  0
  -35.9828    7.6214  -41.0271 C   0  0  0  0  0  0  0  0  0  0  0  0
  -34.9460    6.5589  -41.3971 C   0  0  0  0  0  0  0  0  0  0  0  0
  -35.3535    5.8833  -42.7079 C   0  0  0  0  0  0  0  0  0  0  0  0
  -36.6585    5.1099  -42.5008 C   0  0  0  0  0  0  0  0  0  0  0  0
  -37.0291    4.3869  -43.7977 C   0  0  0  0  0  0  0  0  0  0  0  0
  -35.9480    3.4664  -44.1723 N   0  0  0  0  0  0  0  0  0  0  0  0
  -34.6958    4.1916  -44.4226 C   0  0  0  0  0  0  0  0  0  0  0  0
  -34.2559    4.9088  -43.1442 C   0  0  0  0  0  0  0  0  0  0  0  0
  -36.3899    2.5211  -45.5270 X   0  0  0  0  0  0  0  0  0  0  0  0
  1  2  1  0  0  0  0
  2  3  1  0  0  0  0
  2  4  1  0  0  0  0
  4  5  1  0  0  0  0
  5  6  1  0  0  0  0
  6  7  1  0  0  0  0
  6 11  1  0  0  0  0
  7  8  1  0  0  0  0
  8  9  1  0  0  0  0
  9 10  1  0  0  0  0
  9 12  1  0  0  0  0
 10 11  1  0  0  0  0
M  END
> <Index>
3504

> <PropertyFieldDistance>
nan

$$$$
1080298
BBcorina  12272117083D 1   1.00000     0.00000 
CORINA 4.3.0 0026  30.10.2019
 15 16  0  0  0  0  0  0  0  0999 V2000
  -37.4522   -0.7702  -47.1855 F   0  0  0  0  0  0  0  0  0  0  0  0
  -37.0775    0.2536  -46.3875 C   0  0  0  0  0  0  0  0  0  0  0  0
  -35.9501    0.9951  -46.6980 C   0  0  0  0  0  0  0  0  0  0  0  0
  -35.5655    2.0426  -45.8839 C   0  0  0  0  0  0  0  0  0  0  0  0
  -36.3105    2.3517  -44.7534 C   0  0  0  0  0  0  0  0  0  0  0  0
  -37.4411    1.6070  -44.4442 C   0  0  0  0  0  0  0  0  0  0  0  0
  -37.8218    0.5601  -45.2609 C   0  0  0  0  0  0  0  0  0  0  0  0
  -35.9227    3.4113  -43.9276 N   0  0  0  0  0  0  0  0  0  0  0  0
  -37.0216    4.3884  -43.7678 C   0  0  0  0  0  0  0  0  0  0  0  0
  -36.8385    5.1034  -42.4527 C   0  0  0  0  0  0  0  0  0  0  0  0
  -36.0333    6.4034  -42.6086 C   0  0  0  0  0  0  0  0  0  0  0  0
  -34.8852    6.2507  -43.5309 N   0  0  0  0  0  0  0  0  0  0  0  0
  -34.1637    5.0088  -43.3658 C   0  0  0  0  0  0  0  0  0  0  0  0
  -34.7177    3.9740  -44.3658 C   0  0  0  0  0  0  0  0  0  0  0  0
  -33.8297    7.5917  -43.4227 X   0  0  0  0  0  0  0  0  0  0  0  0
  1  2  1  0  0  0  0
  2  3  2  0  0  0  0
  2  7  1  0  0  0  0
  3  4  1  0  0  0  0
  4  5  2  0  0  0  0
  5  6  1  0  0  0  0
  5  8  1  0  0  0  0
  6  7  2  0  0  0  0
  8  9  1  0  0  0  0
  8 14  1  0  0  0  0
  9 10  1  0  0  0  0
 10 11  1  0  0  0  0
 11 12  1  0  0  0  0
 12 13  1  0  0  0  0
 12 15  1  0  0  0  0
 13 14  1  0  0  0  0
M  END
> <Index>
3507

> <PropertyFieldDistance>
nan

$$$$
1080382
BBcorina  12272117083D 1   1.00000     0.00000 
CORINA 4.3.0 0026  30.10.2019
 14 15  0  0  0  0  0  0  0  0999 V2000
  -35.9635    3.5304  -44.3094 N   0  0  0  0  0  0  0  0  0  0  0  0
  -37.2715    4.2215  -44.2474 C   0  0  0  0  0  0  0  0  0  0  0  0
  -37.2577    5.4198  -43.2850 C   0  0  0  0  0  0  0  0  0  0  0  0
  -36.5073    5.1170  -42.0126 C   0  0  0  0  0  0  0  0  0  0  0  0
  -35.1006    5.5401  -42.1852 N   0  0  0  0  0  0  0  0  0  0  0  0
  -34.3145    4.6299  -42.9022 C   0  0  0  0  0  0  0  0  0  0  0  0
  -34.8296    4.4268  -44.3413 C   0  0  0  0  0  0  0  0  0  0  0  0
  -34.5153    5.8462  -40.9546 C   0  0  0  0  0  0  0  0  0  0  0  0
  -33.3490    5.2035  -40.5593 C   0  0  0  0  0  0  0  0  0  0  0  0
  -32.7698    5.5128  -39.3444 C   0  0  0  0  0  0  0  0  0  0  0  0
  -33.3527    6.4569  -38.5191 C   0  0  0  0  0  0  0  0  0  0  0  0
  -34.5171    7.0941  -38.9067 C   0  0  0  0  0  0  0  0  0  0  0  0
  -35.1014    6.7899  -40.1205 C   0  0  0  0  0  0  0  0  0  0  0  0
  -35.9127    2.4312  -45.6183 X   0  0  0  0  0  0  0  0  0  0  0  0
  1  2  1  0  0  0  0
  1  7  1  0  0  0  0
  1 14  1  0  0  0  0
  2  3  1  0  0  0  0
  3  4  1  0  0  0  0
  4  5  1  0  0  0  0
  5  6  1  0  0  0  0
  5  8  1  0  0  0  0
  6  7  1  0  0  0  0
  8  9  2  0  0  0  0
  8 13  1  0  0  0  0
  9 10  1  0  0  0  0
 10 11  2  0  0  0  0
 11 12  1  0  0  0  0
 12 13  2  0  0  0  0
M  END
> <Index>
3508

> <PropertyFieldDistance>
nan

$$$$
3685096
BBcorina  12272117083D 1   1.00000     0.00000 
CORINA 4.3.0 0026  30.10.2019
  9  9  0  0  0  0  0  0  0  0999 V2000
  -36.3354    2.3075  -44.8786 C   0  0  0  0  0  0  0  0  0  0  0  0
  -35.9453    3.3417  -43.9110 N   0  0  0  0  0  0  0  0  0  0  0  0
  -37.0433    4.2897  -43.6827 C   0  0  0  0  0  0  0  0  0  0  0  0
  -36.6554    5.2624  -42.5668 C   0  0  0  0  0  0  0  0  0  0  0  0
  -35.3833    6.0133  -42.9700 C   0  0  0  0  0  0  0  0  0  0  0  0
  -34.2691    5.0007  -43.2489 C   0  0  0  0  0  0  0  0  0  0  0  0
  -34.7262    4.0357  -44.3451 C   0  0  0  0  0  0  0  0  0  0  0  0
  -33.0615    5.7100  -43.6922 N   0  0  0  0  0  0  0  0  0  0  0  0
  -33.3646    6.6043  -45.1179 X   0  0  0  0  0  0  0  0  0  0  0  0
  1  2  1  0  0  0  0
  2  3  1  0  0  0  0
  2  7  1  0  0  0  0
  3  4  1  0  0  0  0
  4  5  1  0  0  0  0
  5  6  1  0  0  0  0
  6  7  1  0  0  0  0
  6  8  1  0  0  0  0
  8  9  1  0  0  0  0
M  END
> <Index>
3526

> <PropertyFieldDistance>
nan

$$$$
2054738
BBcorina  12272117083D 1   1.00000     0.00000 
CORINA 4.3.0 0026  30.10.2019
  9  9  0  0  0  0  0  0  0  0999 V2000
  -36.0173    3.5927  -44.4913 N   0  0  0  0  0  0  0  0  0  0  0  0
  -36.3933    2.1751  -44.5753 C   0  0  0  0  0  0  0  0  0  0  0  0
  -36.1059    1.6538  -45.9847 C   0  0  0  0  0  0  0  0  0  0  0  0
  -36.3793    0.1455  -46.0422 C   0  0  0  0  0  0  0  0  0  0  0  0
  -35.9199   -0.3826  -47.4030 C   0  0  0  0  0  0  0  0  0  0  0  0
  -36.4671    0.4808  -48.5031 C   0  0  0  0  0  0  0  0  0  0  0  0
  -36.9460    1.6699  -48.3234 C   0  0  0  0  0  0  0  0  0  0  0  0
  -37.0264    2.3512  -46.9887 C   0  0  0  0  0  0  0  0  0  0  0  0
  -36.3229    4.2163  -42.9288 X   0  0  0  0  0  0  0  0  0  0  0  0
  1  2  1  0  0  0  0
  1  9  1  0  0  0  0
  2  3  1  0  0  0  0
  3  4  1  0  0  0  0
  3  8  1  0  0  0  0
  4  5  1  0  0  0  0
  5  6  1  0  0  0  0
  6  7  2  0  0  0  0
  7  8  1  0  0  0  0
M  END
> <Index>
3535

> <PropertyFieldDistance>
nan

$$$$
2196662
BBcorina  12272117083D 1   1.00000     0.00000 
CORINA 4.3.0 0026  30.10.2019
 11 11  0  0  0  0  0  0  0  0999 V2000
  -35.6899    1.5838  -45.7498 C   0  0  0  0  0  0  0  0  0  0  0  0
  -36.6441    2.6823  -45.2767 C   0  0  0  0  0  0  0  0  0  0  0  0
  -38.0555    2.1078  -45.1401 C   0  0  0  0  0  0  0  0  0  0  0  0
  -36.1952    3.1934  -43.9747 N   0  0  0  0  0  0  0  0  0  0  0  0
  -37.1327    4.2108  -43.4531 C   0  0  0  0  0  0  0  0  0  0  0  0
  -36.2390    5.2136  -42.6815 C   0  0  0  0  0  0  0  0  0  0  0  0
  -34.9701    5.2530  -43.5732 C   0  0  0  0  0  0  0  0  0  0  0  0
  -33.7387    5.6392  -42.7513 C   0  0  0  0  0  0  0  0  0  0  0  0
  -33.8198    7.0596  -42.3858 N   0  0  0  0  0  0  0  0  0  0  0  0
  -34.8550    3.7994  -44.0784 C   0  0  0  0  0  0  0  0  0  0  0  0
  -32.4596    7.5337  -41.4642 X   0  0  0  0  0  0  0  0  0  0  0  0
  1  2  1  0  0  0  0
  2  3  1  0  0  0  0
  2  4  1  0  0  0  0
  4  5  1  0  0  0  0
  4 10  1  0  0  0  0
  5  6  1  0  0  0  0
  6  7  1  0  0  0  0
  7  8  1  0  0  0  0
  7 10  1  0  0  0  0
  8  9  1  0  0  0  0
  9 11  1  0  0  0  0
M  END
> <Index>
3537

> <PropertyFieldDistance>
nan

$$$$
5128440
BBcorina  12272117083D 1   1.00000     0.00000 
CORINA 4.3.0 0026  30.10.2019
 12 13  0  0  0  0  0  0  0  0999 V2000
  -36.0194    3.9412  -44.5845 N   0  0  0  0  0  0  0  0  0  0  0  0
  -36.9723    4.0084  -43.4693 C   0  0  0  0  0  0  0  0  0  0  0  0
  -36.6796    5.2476  -42.6205 C   0  0  0  0  0  0  0  0  0  0  0  0
  -35.2463    5.1684  -42.0875 C   0  0  0  0  0  0  0  0  0  0  0  0
  -34.2763    5.0495  -43.2662 C   0  0  0  0  0  0  0  0  0  0  0  0
  -34.6397    3.8168  -44.0972 C   0  0  0  0  0  0  0  0  0  0  0  0
  -34.9320    6.4144  -41.3003 C   0  0  0  0  0  0  0  0  0  0  0  0
  -34.9554    7.7246  -41.7895 C   0  0  0  0  0  0  0  0  0  0  0  0
  -34.6320    8.5317  -40.8118 N   0  0  0  0  0  0  0  0  0  0  0  0
  -34.3831    7.7587  -39.6703 N   0  0  0  0  0  0  0  0  0  0  0  0
  -34.5773    6.4635  -39.9954 C   0  0  0  0  0  0  0  0  0  0  0  0
  -36.4111    2.6614  -45.6489 X   0  0  0  0  0  0  0  0  0  0  0  0
  1  2  1  0  0  0  0
  1  6  1  0  0  0  0
  1 12  1  0  0  0  0
  2  3  1  0  0  0  0
  3  4  1  0  0  0  0
  4  5  1  0  0  0  0
  4  7  1  0  0  0  0
  5  6  1  0  0  0  0
  7  8  1  0  0  0  0
  7 11  2  0  0  0  0
  8  9  2  0  0  0  0
  9 10  1  0  0  0  0
 10 11  1  0  0  0  0
M  END
> <Index>
3543

> <PropertyFieldDistance>
nan

$$$$
1137556
BBcorina  12272117083D 1   1.00000     0.00000 
CORINA 4.3.0 0026  30.10.2019
 11 11  0  0  0  0  0  0  0  0999 V2000
  -37.0662    2.0114  -45.7132 C   0  0  0  0  0  0  0  0  0  0  0  0
  -35.7527    2.2035  -44.9523 C   0  0  0  0  0  0  0  0  0  0  0  0
  -34.5751    1.9885  -45.9052 C   0  0  0  0  0  0  0  0  0  0  0  0
  -35.6739    1.1915  -43.8075 C   0  0  0  0  0  0  0  0  0  0  0  0
  -35.6981    3.5660  -44.4060 N   0  0  0  0  0  0  0  0  0  0  0  0
  -36.8165    3.8092  -43.4843 C   0  0  0  0  0  0  0  0  0  0  0  0
  -36.7689    5.2603  -43.0001 C   0  0  0  0  0  0  0  0  0  0  0  0
  -35.4809    5.5112  -42.3384 N   0  0  0  0  0  0  0  0  0  0  0  0
  -34.3625    5.2681  -43.2602 C   0  0  0  0  0  0  0  0  0  0  0  0
  -34.4101    3.8169  -43.7444 C   0  0  0  0  0  0  0  0  0  0  0  0
  -35.4173    7.0973  -41.7025 X   0  0  0  0  0  0  0  0  0  0  0  0
  1  2  1  0  0  0  0
  2  3  1  0  0  0  0
  2  4  1  0  0  0  0
  2  5  1  0  0  0  0
  5  6  1  0  0  0  0
  5 10  1  0  0  0  0
  6  7  1  0  0  0  0
  7  8  1  0  0  0  0
  8  9  1  0  0  0  0
  8 11  1  0  0  0  0
  9 10  1  0  0  0  0
M  END
> <Index>
3544

> <PropertyFieldDistance>
nan

$$$$
1137390
BBcorina  12272117083D 1   1.00000     0.00000 
CORINA 4.3.0 0026  30.10.2019
 13 14  0  0  0  0  0  0  0  0999 V2000
  -34.0029    8.3731  -38.4461 C   0  0  0  0  0  0  0  0  0  0  0  0
  -34.4080    7.7796  -39.7708 C   0  0  0  0  0  0  0  0  0  0  0  0
  -34.6479    8.4361  -40.8664 N   0  0  0  0  0  0  0  0  0  0  0  0
  -34.9507    7.6702  -41.7570 O   0  0  0  0  0  0  0  0  0  0  0  0
  -34.9320    6.4144  -41.3003 C   0  0  0  0  0  0  0  0  0  0  0  0
  -34.5876    6.4735  -40.0364 N   0  0  0  0  0  0  0  0  0  0  0  0
  -35.2463    5.1684  -42.0874 C   0  0  0  0  0  0  0  0  0  0  0  0
  -36.6796    5.2477  -42.6204 C   0  0  0  0  0  0  0  0  0  0  0  0
  -36.9724    4.0084  -43.4693 C   0  0  0  0  0  0  0  0  0  0  0  0
  -36.0194    3.9412  -44.5845 N   0  0  0  0  0  0  0  0  0  0  0  0
  -34.6397    3.8168  -44.0972 C   0  0  0  0  0  0  0  0  0  0  0  0
  -34.2763    5.0495  -43.2663 C   0  0  0  0  0  0  0  0  0  0  0  0
  -36.4111    2.6615  -45.6490 X   0  0  0  0  0  0  0  0  0  0  0  0
  1  2  1  0  0  0  0
  2  3  2  0  0  0  0
  2  6  1  0  0  0  0
  3  4  1  0  0  0  0
  4  5  1  0  0  0  0
  5  6  2  0  0  0  0
  5  7  1  0  0  0  0
  7  8  1  0  0  0  0
  7 12  1  0  0  0  0
  8  9  1  0  0  0  0
  9 10  1  0  0  0  0
 10 11  1  0  0  0  0
 10 13  1  0  0  0  0
 11 12  1  0  0  0  0
M  END
> <Index>
3546

> <PropertyFieldDistance>
nan

$$$$
1951616
BBcorina  12272117083D 1   1.00000     0.00000 
CORINA 4.3.0 0026  30.10.2019
 12 12  0  0  0  0  0  0  0  0999 V2000
  -37.4990    2.7894  -48.1049 C   0  0  0  0  0  0  0  0  0  0  0  0
  -36.5456    2.8217  -47.0410 O   0  0  0  0  0  0  0  0  0  0  0  0
  -36.9136    2.0343  -45.9066 C   0  0  0  0  0  0  0  0  0  0  0  0
  -35.8260    2.1428  -44.8359 C   0  0  0  0  0  0  0  0  0  0  0  0
  -35.7595    3.5254  -44.3438 N   0  0  0  0  0  0  0  0  0  0  0  0
  -36.8788    3.8162  -43.4387 C   0  0  0  0  0  0  0  0  0  0  0  0
  -36.8599    5.2994  -43.0622 C   0  0  0  0  0  0  0  0  0  0  0  0
  -35.5290    5.6313  -42.3816 C   0  0  0  0  0  0  0  0  0  0  0  0
  -34.3784    5.2741  -43.3265 C   0  0  0  0  0  0  0  0  0  0  0  0
  -34.4692    3.7916  -43.6953 C   0  0  0  0  0  0  0  0  0  0  0  0
  -35.4813    7.0662  -42.0703 N   0  0  0  0  0  0  0  0  0  0  0  0
  -35.7278    8.0068  -43.4769 X   0  0  0  0  0  0  0  0  0  0  0  0
  1  2  1  0  0  0  0
  2  3  1  0  0  0  0
  3  4  1  0  0  0  0
  4  5  1  0  0  0  0
  5  6  1  0  0  0  0
  5 10  1  0  0  0  0
  6  7  1  0  0  0  0
  7  8  1  0  0  0  0
  8  9  1  0  0  0  0
  8 11  1  0  0  0  0
  9 10  1  0  0  0  0
 11 12  1  0  0  0  0
M  END
> <Index>
3555

> <PropertyFieldDistance>
nan

$$$$
1321834
BBcorina  12272117083D 1   1.00000     0.00000 
CORINA 4.3.0 0026  30.10.2019
 11 11  0  0  0  0  0  0  0  0999 V2000
  -35.7987    1.9261  -46.0673 C   0  0  0  0  0  0  0  0  0  0  0  0
  -36.5188    2.2380  -44.7540 C   0  0  0  0  0  0  0  0  0  0  0  0
  -36.1324    3.5770  -44.2896 N   0  0  0  0  0  0  0  0  0  0  0  0
  -36.9749    4.0081  -43.1668 C   0  0  0  0  0  0  0  0  0  0  0  0
  -36.6430    5.4576  -42.8054 C   0  0  0  0  0  0  0  0  0  0  0  0
  -35.1631    5.5578  -42.4253 C   0  0  0  0  0  0  0  0  0  0  0  0
  -34.8110    7.0151  -42.1202 C   0  0  0  0  0  0  0  0  0  0  0  0
  -33.4247    7.0939  -41.6408 N   0  0  0  0  0  0  0  0  0  0  0  0
  -34.3092    5.0575  -43.5937 C   0  0  0  0  0  0  0  0  0  0  0  0
  -34.7087    3.6195  -43.9322 C   0  0  0  0  0  0  0  0  0  0  0  0
  -32.9893    8.7093  -41.2873 X   0  0  0  0  0  0  0  0  0  0  0  0
  1  2  1  0  0  0  0
  2  3  1  0  0  0  0
  3  4  1  0  0  0  0
  3 10  1  0  0  0  0
  4  5  1  0  0  0  0
  5  6  1  0  0  0  0
  6  7  1  0  0  0  0
  6  9  1  0  0  0  0
  7  8  1  0  0  0  0
  8 11  1  0  0  0  0
  9 10  1  0  0  0  0
M  END
> <Index>
3557

> <PropertyFieldDistance>
nan

$$$$
2443028
BBcorina  12272117083D 1   1.00000     0.00000 
CORINA 4.3.0 0026  30.10.2019
 12 12  0  0  0  0  0  0  0  0999 V2000
  -36.2007    0.5316  -46.5510 C   0  0  0  0  0  0  0  0  0  0  0  0
  -35.7984    1.9262  -46.0673 C   0  0  0  0  0  0  0  0  0  0  0  0
  -36.5187    2.2380  -44.7539 C   0  0  0  0  0  0  0  0  0  0  0  0
  -36.1324    3.5771  -44.2896 N   0  0  0  0  0  0  0  0  0  0  0  0
  -36.9750    4.0081  -43.1667 C   0  0  0  0  0  0  0  0  0  0  0  0
  -36.6429    5.4577  -42.8054 C   0  0  0  0  0  0  0  0  0  0  0  0
  -35.1630    5.5577  -42.4253 C   0  0  0  0  0  0  0  0  0  0  0  0
  -34.8108    7.0149  -42.1202 C   0  0  0  0  0  0  0  0  0  0  0  0
  -33.4245    7.0936  -41.6408 N   0  0  0  0  0  0  0  0  0  0  0  0
  -34.3092    5.0573  -43.5938 C   0  0  0  0  0  0  0  0  0  0  0  0
  -34.7089    3.6194  -43.9323 C   0  0  0  0  0  0  0  0  0  0  0  0
  -32.9890    8.7090  -41.2873 X   0  0  0  0  0  0  0  0  0  0  0  0
  1  2  1  0  0  0  0
  2  3  1  0  0  0  0
  3  4  1  0  0  0  0
  4  5  1  0  0  0  0
  4 11  1  0  0  0  0
  5  6  1  0  0  0  0
  6  7  1  0  0  0  0
  7  8  1  0  0  0  0
  7 10  1  0  0  0  0
  8  9  1  0  0  0  0
  9 12  1  0  0  0  0
 10 11  1  0  0  0  0
M  END
> <Index>
3558

> <PropertyFieldDistance>
nan

$$$$
1308274
BBcorina  12272117083D 1   1.00000     0.00000 
CORINA 4.3.0 0026  30.10.2019
 13 14  0  0  0  0  0  0  0  0999 V2000
  -35.2517    5.7272  -42.7086 N   0  0  0  0  0  0  0  0  0  0  0  0
  -36.5103    5.0791  -42.3144 C   0  0  0  0  0  0  0  0  0  0  0  0
  -37.0927    4.3292  -43.5148 C   0  0  0  0  0  0  0  0  0  0  0  0
  -36.1183    3.3364  -43.9885 N   0  0  0  0  0  0  0  0  0  0  0  0
  -36.6706    2.5427  -45.0944 C   0  0  0  0  0  0  0  0  0  0  0  0
  -35.5754    1.7130  -45.7131 C   0  0  0  0  0  0  0  0  0  0  0  0
  -35.3431    0.4447  -45.3618 C   0  0  0  0  0  0  0  0  0  0  0  0
  -33.9872   -0.1441  -46.3208 S   0  0  0  0  0  0  0  0  0  0  0  0
  -33.8674    1.3737  -47.0987 C   0  0  0  0  0  0  0  0  0  0  0  0
  -34.7680    2.1786  -46.6447 N   0  0  0  0  0  0  0  0  0  0  0  0
  -34.8596    3.9845  -44.3827 C   0  0  0  0  0  0  0  0  0  0  0  0
  -34.2773    4.7345  -43.1823 C   0  0  0  0  0  0  0  0  0  0  0  0
  -34.6087    6.6512  -41.4213 X   0  0  0  0  0  0  0  0  0  0  0  0
  1  2  1  0  0  0  0
  1 12  1  0  0  0  0
  1 13  1  0  0  0  0
  2  3  1  0  0  0  0
  3  4  1  0  0  0  0
  4  5  1  0  0  0  0
  4 11  1  0  0  0  0
  5  6  1  0  0  0  0
  6  7  2  0  0  0  0
  6 10  1  0  0  0  0
  7  8  1  0  0  0  0
  8  9  1  0  0  0  0
  9 10  2  0  0  0  0
 11 12  1  0  0  0  0
M  END
> <Index>
3561

> <PropertyFieldDistance>
nan

$$$$
9745814
BBcorina  12272117083D 1   1.00000     0.00000 
CORINA 4.3.0 0026  30.10.2019
 12 13  0  0  0  0  0  0  0  0999 V2000
  -34.3838    7.4288  -40.2073 C   0  0  0  0  0  0  0  0  0  0  0  0
  -35.4518    7.4421  -41.3030 C   0  0  0  0  0  0  0  0  0  0  0  0
  -35.1171    6.4809  -42.3060 O   0  0  0  0  0  0  0  0  0  0  0  0
  -36.0555    6.4124  -43.3815 C   0  0  0  0  0  0  0  0  0  0  0  0
  -37.1548    5.3789  -43.0495 C   0  0  0  0  0  0  0  0  0  0  0  0
  -36.5039    3.9874  -42.9933 C   0  0  0  0  0  0  0  0  0  0  0  0
  -35.2215    4.0842  -42.1351 C   0  0  0  0  0  0  0  0  0  0  0  0
  -34.1062    4.4612  -43.1323 C   0  0  0  0  0  0  0  0  0  0  0  0
  -34.8160    4.5580  -44.5024 C   0  0  0  0  0  0  0  0  0  0  0  0
  -35.3303    5.9974  -44.6648 C   0  0  0  0  0  0  0  0  0  0  0  0
  -36.0064    3.6780  -44.3602 N   0  0  0  0  0  0  0  0  0  0  0  0
  -35.5700    2.0302  -44.4951 X   0  0  0  0  0  0  0  0  0  0  0  0
  1  2  1  0  0  0  0
  2  3  1  0  0  0  0
  3  4  1  0  0  0  0
  4  5  1  0  0  0  0
  4 10  1  0  0  0  0
  5  6  1  0  0  0  0
  6  7  1  0  0  0  0
  6 11  1  0  0  0  0
  7  8  1  0  0  0  0
  8  9  1  0  0  0  0
  9 10  1  0  0  0  0
  9 11  1  0  0  0  0
 11 12  1  0  0  0  0
M  END
> <Index>
3563

> <PropertyFieldDistance>
nan

$$$$
1307360
BBcorina  12272117083D 1   1.00000     0.00000 
CORINA 4.3.0 0026  30.10.2019
 14 15  0  0  0  0  0  0  0  0999 V2000
  -34.8926   -0.6118  -46.4884 N   0  0  0  0  0  0  0  0  0  0  0  0
  -35.7943    0.3912  -46.1258 C   0  0  0  0  0  0  0  0  0  0  0  0
  -37.0660    0.4186  -46.6852 C   0  0  0  0  0  0  0  0  0  0  0  0
  -37.9589    1.4103  -46.3266 C   0  0  0  0  0  0  0  0  0  0  0  0
  -37.5909    2.3775  -45.4116 C   0  0  0  0  0  0  0  0  0  0  0  0
  -36.3205    2.3559  -44.8483 C   0  0  0  0  0  0  0  0  0  0  0  0
  -35.4193    1.3651  -45.2107 C   0  0  0  0  0  0  0  0  0  0  0  0
  -35.9493    3.3339  -43.9228 N   0  0  0  0  0  0  0  0  0  0  0  0
  -37.0464    4.2820  -43.6906 C   0  0  0  0  0  0  0  0  0  0  0  0
  -36.6586    5.2484  -42.5691 C   0  0  0  0  0  0  0  0  0  0  0  0
  -35.3853    5.9999  -42.9674 C   0  0  0  0  0  0  0  0  0  0  0  0
  -34.2709    4.9887  -43.2500 C   0  0  0  0  0  0  0  0  0  0  0  0
  -34.7290    4.0288  -44.3522 C   0  0  0  0  0  0  0  0  0  0  0  0
  -35.3532   -1.8070  -47.6212 X   0  0  0  0  0  0  0  0  0  0  0  0
  1  2  1  0  0  0  0
  1 14  1  0  0  0  0
  2  3  2  0  0  0  0
  2  7  1  0  0  0  0
  3  4  1  0  0  0  0
  4  5  2  0  0  0  0
  5  6  1  0  0  0  0
  6  7  2  0  0  0  0
  6  8  1  0  0  0  0
  8  9  1  0  0  0  0
  8 13  1  0  0  0  0
  9 10  1  0  0  0  0
 10 11  1  0  0  0  0
 11 12  1  0  0  0  0
 12 13  1  0  0  0  0
M  END
> <Index>
3570

> <PropertyFieldDistance>
nan

$$$$
3936228
BBcorina  12272117083D 1   1.00000     0.00000 
CORINA 4.3.0 0026  30.10.2019
 13 14  0  0  0  0  0  0  0  0999 V2000
  -33.9783    5.8863  -42.6878 N   0  0  0  0  0  0  0  0  0  0  0  0
  -35.0431    5.3569  -43.5502 C   0  0  0  0  0  0  0  0  0  0  0  0
  -36.3879    5.2751  -42.7754 C   0  0  0  0  0  0  0  0  0  0  0  0
  -37.1173    4.1424  -43.5400 C   0  0  0  0  0  0  0  0  0  0  0  0
  -36.0556    3.1741  -43.8881 N   0  0  0  0  0  0  0  0  0  0  0  0
  -34.7642    3.8849  -43.9203 C   0  0  0  0  0  0  0  0  0  0  0  0
  -36.3201    2.5608  -45.1148 C   0  0  0  0  0  0  0  0  0  0  0  0
  -36.4345    3.3287  -46.2666 C   0  0  0  0  0  0  0  0  0  0  0  0
  -36.6956    2.7191  -47.4780 C   0  0  0  0  0  0  0  0  0  0  0  0
  -36.8433    1.3458  -47.5450 C   0  0  0  0  0  0  0  0  0  0  0  0
  -36.7300    0.5783  -46.4003 C   0  0  0  0  0  0  0  0  0  0  0  0
  -36.4638    1.1810  -45.1866 C   0  0  0  0  0  0  0  0  0  0  0  0
  -33.7759    7.5674  -42.9260 X   0  0  0  0  0  0  0  0  0  0  0  0
  1  2  1  0  0  0  0
  1 13  1  0  0  0  0
  2  3  1  0  0  0  0
  2  6  1  0  0  0  0
  3  4  1  0  0  0  0
  4  5  1  0  0  0  0
  5  6  1  0  0  0  0
  5  7  1  0  0  0  0
  7  8  2  0  0  0  0
  7 12  1  0  0  0  0
  8  9  1  0  0  0  0
  9 10  2  0  0  0  0
 10 11  1  0  0  0  0
 11 12  2  0  0  0  0
M  END
> <Index>
3604

> <PropertyFieldDistance>
nan

$$$$
1182284
BBcorina  12272117083D 1   1.00000     0.00000 
CORINA 4.3.0 0026  30.10.2019
  8  9  0  0  0  0  0  0  0  0999 V2000
  -35.9739    3.7823  -44.5689 N   0  0  0  0  0  0  0  0  0  0  0  0
  -37.0676    4.4402  -43.8157 C   0  0  0  0  0  0  0  0  0  0  0  0
  -36.4394    4.8049  -42.4146 C   0  0  0  0  0  0  0  0  0  0  0  0
  -35.4235    5.9488  -42.7228 C   0  0  0  0  0  0  0  0  0  0  0  0
  -34.3257    5.2622  -43.5711 C   0  0  0  0  0  0  0  0  0  0  0  0
  -34.7808    3.7740  -43.6674 C   0  0  0  0  0  0  0  0  0  0  0  0
  -35.4609    3.5843  -42.2662 C   0  0  0  0  0  0  0  0  0  0  0  0
  -35.6389    4.6211  -46.0210 X   0  0  0  0  0  0  0  0  0  0  0  0
  1  2  1  0  0  0  0
  1  6  1  0  0  0  0
  1  8  1  0  0  0  0
  2  3  1  0  0  0  0
  3  4  1  0  0  0  0
  3  7  1  0  0  0  0
  4  5  1  0  0  0  0
  5  6  1  0  0  0  0
  6  7  1  0  0  0  0
M  END
> <Index>
3611

> <PropertyFieldDistance>
nan

$$$$
7913334
BBcorina  12272117083D 1   1.00000     0.00000 
CORINA 4.3.0 0026  30.10.2019
 12 12  0  0  0  0  0  0  0  0999 V2000
  -35.5405    6.8753  -43.7181 O   0  0  0  0  0  0  0  0  0  0  0  0
  -35.3532    5.8831  -42.7070 C   0  0  0  0  0  0  0  0  0  0  0  0
  -36.6587    5.1099  -42.5007 C   0  0  0  0  0  0  0  0  0  0  0  0
  -37.0290    4.3869  -43.7977 C   0  0  0  0  0  0  0  0  0  0  0  0
  -35.9480    3.4664  -44.1723 N   0  0  0  0  0  0  0  0  0  0  0  0
  -34.6958    4.1917  -44.4226 C   0  0  0  0  0  0  0  0  0  0  0  0
  -34.2558    4.9088  -43.1443 C   0  0  0  0  0  0  0  0  0  0  0  0
  -34.9460    6.5579  -41.3957 C   0  0  0  0  0  0  0  0  0  0  0  0
  -34.7597    5.5845  -40.4083 F   0  0  0  0  0  0  0  0  0  0  0  0
  -33.7532    7.2639  -41.5853 F   0  0  0  0  0  0  0  0  0  0  0  0
  -35.9527    7.4426  -40.9942 F   0  0  0  0  0  0  0  0  0  0  0  0
  -36.3899    2.5211  -45.5270 X   0  0  0  0  0  0  0  0  0  0  0  0
  1  2  1  0  0  0  0
  2  3  1  0  0  0  0
  2  7  1  0  0  0  0
  2  8  1  0  0  0  0
  3  4  1  0  0  0  0
  4  5  1  0  0  0  0
  5  6  1  0  0  0  0
  5 12  1  0  0  0  0
  6  7  1  0  0  0  0
  8  9  1  0  0  0  0
  8 10  1  0  0  0  0
  8 11  1  0  0  0  0
M  END
> <Index>
3626

> <PropertyFieldDistance>
nan

$$$$
1179570
BBcorina  12272117083D 1   1.00000     0.00000 
CORINA 4.3.0 0026  30.10.2019
 14 14  0  0  0  0  0  0  0  0999 V2000
  -34.1154   -1.0016  -45.7807 C   0  0  0  0  0  0  0  0  0  0  0  0
  -35.2257   -0.5782  -46.7446 C   0  0  0  0  0  0  0  0  0  0  0  0
  -35.9266   -1.8227  -47.2931 C   0  0  0  0  0  0  0  0  0  0  0  0
  -36.2405    0.2933  -46.0023 C   0  0  0  0  0  0  0  0  0  0  0  0
  -35.5689    1.5954  -45.5616 C   0  0  0  0  0  0  0  0  0  0  0  0
  -36.5687    2.4539  -44.8304 C   0  0  0  0  0  0  0  0  0  0  0  0
  -37.7063    2.0627  -44.6769 O   0  0  0  0  0  0  0  0  0  0  0  0
  -36.1984    3.6564  -44.3471 N   0  0  0  0  0  0  0  0  0  0  0  0
  -37.1582    4.5099  -43.6306 C   0  0  0  0  0  0  0  0  0  0  0  0
  -36.5301    4.9380  -42.3000 C   0  0  0  0  0  0  0  0  0  0  0  0
  -35.2213    5.5540  -42.5557 N   0  0  0  0  0  0  0  0  0  0  0  0
  -34.2878    4.5919  -43.1565 C   0  0  0  0  0  0  0  0  0  0  0  0
  -34.8224    4.1471  -44.5169 C   0  0  0  0  0  0  0  0  0  0  0  0
  -34.5707    6.2272  -41.1247 X   0  0  0  0  0  0  0  0  0  0  0  0
  1  2  1  0  0  0  0
  2  3  1  0  0  0  0
  2  4  1  0  0  0  0
  4  5  1  0  0  0  0
  5  6  1  0  0  0  0
  6  7  2  0  0  0  0
  6  8  1  0  0  0  0
  8  9  1  0  0  0  0
  8 13  1  0  0  0  0
  9 10  1  0  0  0  0
 10 11  1  0  0  0  0
 11 12  1  0  0  0  0
 11 14  1  0  0  0  0
 12 13  1  0  0  0  0
M  END
> <Index>
3627

> <PropertyFieldDistance>
nan

$$$$
4351280
BBcorina  12272117083D 1   1.00000     0.00000 
CORINA 4.3.0 0026  30.10.2019
 14 15  0  0  0  0  0  0  0  0999 V2000
  -37.7044    6.3245  -42.3917 C   0  0  0  0  0  0  0  0  0  0  0  0
  -36.6072    5.2766  -42.5891 C   0  0  0  0  0  0  0  0  0  0  0  0
  -37.0377    4.2819  -43.6704 C   0  0  0  0  0  0  0  0  0  0  0  0
  -35.9484    3.3238  -43.9093 N   0  0  0  0  0  0  0  0  0  0  0  0
  -34.7230    4.0214  -44.3252 C   0  0  0  0  0  0  0  0  0  0  0  0
  -34.3157    5.0188  -43.2373 C   0  0  0  0  0  0  0  0  0  0  0  0
  -35.3979    5.9223  -42.9966 O   0  0  0  0  0  0  0  0  0  0  0  0
  -36.3427    2.3152  -44.9018 C   0  0  0  0  0  0  0  0  0  0  0  0
  -35.2898    1.2044  -44.9484 C   0  0  0  0  0  0  0  0  0  0  0  0
  -35.6746    0.1885  -46.0263 C   0  0  0  0  0  0  0  0  0  0  0  0
  -35.7589    0.8625  -47.3283 N   0  0  0  0  0  0  0  0  0  0  0  0
  -36.7964    1.9018  -47.3219 C   0  0  0  0  0  0  0  0  0  0  0  0
  -36.4451    2.9688  -46.2827 C   0  0  0  0  0  0  0  0  0  0  0  0
  -36.0283   -0.2646  -48.5856 X   0  0  0  0  0  0  0  0  0  0  0  0
  1  2  1  0  0  0  0
  2  3  1  0  0  0  0
  2  7  1  0  0  0  0
  3  4  1  0  0  0  0
  4  5  1  0  0  0  0
  4  8  1  0  0  0  0
  5  6  1  0  0  0  0
  6  7  1  0  0  0  0
  8  9  1  0  0  0  0
  8 13  1  0  0  0  0
  9 10  1  0  0  0  0
 10 11  1  0  0  0  0
 11 12  1  0  0  0  0
 11 14  1  0  0  0  0
 12 13  1  0  0  0  0
M  END
> <Index>
3632

> <PropertyFieldDistance>
nan

$$$$
5357298
BBcorina  12272117083D 1   1.00000     0.00000 
CORINA 4.3.0 0026  30.10.2019
 10 10  0  0  0  0  0  0  0  0999 V2000
  -36.8647    2.4050  -46.9343 O   0  0  0  0  0  0  0  0  0  0  0  0
  -36.1059    1.6538  -45.9847 C   0  0  0  0  0  0  0  0  0  0  0  0
  -36.3933    2.1751  -44.5752 C   0  0  0  0  0  0  0  0  0  0  0  0
  -36.0173    3.5927  -44.4913 N   0  0  0  0  0  0  0  0  0  0  0  0
  -36.4977    0.1774  -46.0721 C   0  0  0  0  0  0  0  0  0  0  0  0
  -36.2102   -0.3439  -47.4816 C   0  0  0  0  0  0  0  0  0  0  0  0
  -34.7185   -0.1931  -47.7867 C   0  0  0  0  0  0  0  0  0  0  0  0
  -34.3267    1.2833  -47.6993 C   0  0  0  0  0  0  0  0  0  0  0  0
  -34.6142    1.8046  -46.2899 C   0  0  0  0  0  0  0  0  0  0  0  0
  -36.3229    4.2164  -42.9287 X   0  0  0  0  0  0  0  0  0  0  0  0
  1  2  1  0  0  0  0
  2  3  1  0  0  0  0
  2  5  1  0  0  0  0
  2  9  1  0  0  0  0
  3  4  1  0  0  0  0
  4 10  1  0  0  0  0
  5  6  1  0  0  0  0
  6  7  1  0  0  0  0
  7  8  1  0  0  0  0
  8  9  1  0  0  0  0
M  END
> <Index>
3635

> <PropertyFieldDistance>
nan

$$$$
1282096
BBcorina  12272117083D 1   1.00000     0.00000 
CORINA 4.3.0 0026  30.10.2019
 13 14  0  0  0  0  0  0  0  0999 V2000
  -36.1851    0.7218  -46.6523 N   0  0  0  0  0  0  0  0  0  0  0  0
  -35.6012    1.5897  -45.6209 C   0  0  0  0  0  0  0  0  0  0  0  0
  -36.6802    2.5242  -45.0701 C   0  0  0  0  0  0  0  0  0  0  0  0
  -36.0963    3.3921  -44.0386 N   0  0  0  0  0  0  0  0  0  0  0  0
  -37.0330    4.4578  -43.6549 C   0  0  0  0  0  0  0  0  0  0  0  0
  -36.5712    5.0785  -42.3307 C   0  0  0  0  0  0  0  0  0  0  0  0
  -35.0956    5.3956  -42.4501 C   0  0  0  0  0  0  0  0  0  0  0  0
  -34.1766    6.4473  -41.3858 S   0  0  0  0  0  0  0  0  0  0  0  0
  -32.7111    6.1579  -42.3124 C   0  0  0  0  0  0  0  0  0  0  0  0
  -32.9758    5.3296  -43.3190 C   0  0  0  0  0  0  0  0  0  0  0  0
  -34.2932    4.8957  -43.4110 C   0  0  0  0  0  0  0  0  0  0  0  0
  -34.8103    3.9458  -44.4828 C   0  0  0  0  0  0  0  0  0  0  0  0
  -35.0102   -0.3410  -47.2959 X   0  0  0  0  0  0  0  0  0  0  0  0
  1  2  1  0  0  0  0
  1 13  1  0  0  0  0
  2  3  1  0  0  0  0
  3  4  1  0  0  0  0
  4  5  1  0  0  0  0
  4 12  1  0  0  0  0
  5  6  1  0  0  0  0
  6  7  1  0  0  0  0
  7  8  1  0  0  0  0
  7 11  2  0  0  0  0
  8  9  1  0  0  0  0
  9 10  2  0  0  0  0
 10 11  1  0  0  0  0
 11 12  1  0  0  0  0
M  END
> <Index>
3649

> <PropertyFieldDistance>
nan

$$$$
4836168
BBcorina  12272117083D 1   1.00000     0.00000 
CORINA 4.3.0 0026  30.10.2019
 12 12  0  0  0  0  0  0  0  0999 V2000
  -35.9103    0.7103  -46.6097 N   0  0  0  0  0  0  0  0  0  0  0  0
  -35.8100    1.9354  -46.0569 C   0  0  0  0  0  0  0  0  0  0  0  0
  -35.1551    2.7964  -46.6053 O   0  0  0  0  0  0  0  0  0  0  0  0
  -36.5115    2.2353  -44.7573 C   0  0  0  0  0  0  0  0  0  0  0  0
  -36.1286    3.5751  -44.2920 N   0  0  0  0  0  0  0  0  0  0  0  0
  -36.9744    4.0045  -43.1711 C   0  0  0  0  0  0  0  0  0  0  0  0
  -36.6458    5.4547  -42.8088 C   0  0  0  0  0  0  0  0  0  0  0  0
  -35.1671    5.5573  -42.4253 C   0  0  0  0  0  0  0  0  0  0  0  0
  -34.3095    5.0587  -43.5917 C   0  0  0  0  0  0  0  0  0  0  0  0
  -34.7058    3.6201  -43.9312 C   0  0  0  0  0  0  0  0  0  0  0  0
  -32.8914    5.0998  -43.2106 N   0  0  0  0  0  0  0  0  0  0  0  0
  -32.1915    6.6066  -43.6155 X   0  0  0  0  0  0  0  0  0  0  0  0
  1  2  1  0  0  0  0
  2  3  2  0  0  0  0
  2  4  1  0  0  0  0
  4  5  1  0  0  0  0
  5  6  1  0  0  0  0
  5 10  1  0  0  0  0
  6  7  1  0  0  0  0
  7  8  1  0  0  0  0
  8  9  1  0  0  0  0
  9 10  1  0  0  0  0
  9 11  1  0  0  0  0
 11 12  1  0  0  0  0
M  END
> <Index>
3653

> <PropertyFieldDistance>
nan

$$$$
7945984
BBcorina  12272117083D 1   1.00000     0.00000 
CORINA 4.3.0 0026  30.10.2019
 13 15  0  0  0  0  0  0  0  0999 V2000
  -36.0173    3.5926  -44.4913 N   0  0  0  0  0  0  0  0  0  0  0  0
  -36.3933    2.1751  -44.5752 C   0  0  0  0  0  0  0  0  0  0  0  0
  -36.1059    1.6538  -45.9847 C   0  0  0  0  0  0  0  0  0  0  0  0
  -36.6116    0.2151  -46.1093 C   0  0  0  0  0  0  0  0  0  0  0  0
  -36.3242   -0.3062  -47.5187 C   0  0  0  0  0  0  0  0  0  0  0  0
  -34.8167   -0.2713  -47.7777 C   0  0  0  0  0  0  0  0  0  0  0  0
  -34.1024   -1.1537  -46.7520 C   0  0  0  0  0  0  0  0  0  0  0  0
  -34.3898   -0.6323  -45.3426 C   0  0  0  0  0  0  0  0  0  0  0  0
  -35.8973   -0.6672  -45.0836 C   0  0  0  0  0  0  0  0  0  0  0  0
  -33.8841    0.8062  -45.2180 C   0  0  0  0  0  0  0  0  0  0  0  0
  -34.5984    1.6886  -46.2437 C   0  0  0  0  0  0  0  0  0  0  0  0
  -34.3110    1.1672  -47.6531 C   0  0  0  0  0  0  0  0  0  0  0  0
  -36.3230    4.2164  -42.9288 X   0  0  0  0  0  0  0  0  0  0  0  0
  1  2  1  0  0  0  0
  1 13  1  0  0  0  0
  2  3  1  0  0  0  0
  3  4  1  0  0  0  0
  3 11  1  0  0  0  0
  4  5  1  0  0  0  0
  4  9  1  0  0  0  0
  5  6  1  0  0  0  0
  6  7  1  0  0  0  0
  6 12  1  0  0  0  0
  7  8  1  0  0  0  0
  8  9  1  0  0  0  0
  8 10  1  0  0  0  0
 10 11  1  0  0  0  0
 11 12  1  0  0  0  0
M  END
> <Index>
3656

> <PropertyFieldDistance>
nan

$$$$
2206966
BBcorina  12272117083D 1   1.00000     0.00000 
CORINA 4.3.0 0026  30.10.2019
 12 14  0  0  0  0  0  0  0  0999 V2000
  -35.8971    3.5935  -44.1744 N   0  0  0  0  0  0  0  0  0  0  0  0
  -37.0997    4.1178  -43.6240 C   0  0  0  0  0  0  0  0  0  0  0  0
  -36.9282    5.2093  -42.6056 C   0  0  0  0  0  0  0  0  0  0  0  0
  -36.9779    6.5736  -43.2925 C   0  0  0  0  0  0  0  0  0  0  0  0
  -35.6284    6.8762  -43.9328 C   0  0  0  0  0  0  0  0  0  0  0  0
  -34.5687    6.9738  -42.8325 C   0  0  0  0  0  0  0  0  0  0  0  0
  -34.4263    5.5912  -42.1941 C   0  0  0  0  0  0  0  0  0  0  0  0
  -35.7539    5.0754  -41.6819 C   0  0  0  0  0  0  0  0  0  0  0  0
  -33.8484    4.6322  -43.2382 C   0  0  0  0  0  0  0  0  0  0  0  0
  -34.8139    4.5108  -44.3955 C   0  0  0  0  0  0  0  0  0  0  0  0
  -35.2325    5.8446  -44.9739 C   0  0  0  0  0  0  0  0  0  0  0  0
  -36.2250    2.6815  -45.5832 X   0  0  0  0  0  0  0  0  0  0  0  0
  1  2  1  0  0  0  0
  1 10  1  0  0  0  0
  1 12  1  0  0  0  0
  2  3  1  0  0  0  0
  3  4  1  0  0  0  0
  3  8  1  0  0  0  0
  4  5  1  0  0  0  0
  5  6  1  0  0  0  0
  5 11  1  0  0  0  0
  6  7  1  0  0  0  0
  7  8  1  0  0  0  0
  7  9  1  0  0  0  0
  9 10  1  0  0  0  0
 10 11  1  0  0  0  0
M  END
> <Index>
3658

> <PropertyFieldDistance>
nan

$$$$
1198744
BBcorina  12272117083D 1   1.00000     0.00000 
CORINA 4.3.0 0026  30.10.2019
  7  7  0  0  0  0  0  0  0  0999 V2000
  -35.6687    4.1681  -42.5021 C   0  0  0  0  0  0  0  0  0  0  0  0
  -35.8274    3.4744  -43.8566 C   0  0  0  0  0  0  0  0  0  0  0  0
  -35.9264    4.4047  -45.0672 C   0  0  0  0  0  0  0  0  0  0  0  0
  -36.6365    2.1764  -43.8950 C   0  0  0  0  0  0  0  0  0  0  0  0
  -35.1152    2.1344  -44.0518 C   0  0  0  0  0  0  0  0  0  0  0  0
  -34.3313    1.6123  -42.9244 N   0  0  0  0  0  0  0  0  0  0  0  0
  -32.7434    2.2468  -42.9362 X   0  0  0  0  0  0  0  0  0  0  0  0
  1  2  1  0  0  0  0
  2  3  1  0  0  0  0
  2  4  1  0  0  0  0
  2  5  1  0  0  0  0
  4  5  1  0  0  0  0
  5  6  1  0  0  0  0
  6  7  1  0  0  0  0
M  END
> <Index>
3665

> <PropertyFieldDistance>
nan

$$$$
3179094
BBcorina  12272117083D 1   1.00000     0.00000 
CORINA 4.3.0 0026  30.10.2019
 11 11  0  0  0  0  0  0  0  0999 V2000
  -35.2497    5.7277  -42.7076 N   0  0  0  0  0  0  0  0  0  0  0  0
  -36.5085    5.0811  -42.3116 C   0  0  0  0  0  0  0  0  0  0  0  0
  -37.0937    4.3323  -43.5113 C   0  0  0  0  0  0  0  0  0  0  0  0
  -36.1213    3.3384  -43.9870 N   0  0  0  0  0  0  0  0  0  0  0  0
  -36.6764    2.5459  -45.0923 C   0  0  0  0  0  0  0  0  0  0  0  0
  -35.5665    1.7023  -45.7226 C   0  0  0  0  0  0  0  0  0  0  0  0
  -36.1227    0.9080  -46.8302 C   0  0  0  0  0  0  0  0  0  0  0  0
  -36.5664    0.2747  -47.7134 C   0  0  0  0  0  0  0  0  0  0  0  0
  -34.8624    3.9851  -44.3830 C   0  0  0  0  0  0  0  0  0  0  0  0
  -34.2773    4.7339  -43.1833 C   0  0  0  0  0  0  0  0  0  0  0  0
  -34.6035    6.6503  -41.4210 X   0  0  0  0  0  0  0  0  0  0  0  0
  1  2  1  0  0  0  0
  1 10  1  0  0  0  0
  1 11  1  0  0  0  0
  2  3  1  0  0  0  0
  3  4  1  0  0  0  0
  4  5  1  0  0  0  0
  4  9  1  0  0  0  0
  5  6  1  0  0  0  0
  6  7  1  0  0  0  0
  7  8  3  0  0  0  0
  9 10  1  0  0  0  0
M  END
> <Index>
3689

> <PropertyFieldDistance>
nan

$$$$
7868006
BBcorina  12272117083D 1   1.00000     0.00000 
CORINA 4.3.0 0026  30.10.2019
 11 11  0  0  0  0  0  0  0  0999 V2000
  -36.1963    0.3792  -45.9731 O   0  0  0  0  0  0  0  0  0  0  0  0
  -35.5689    1.5954  -45.5616 C   0  0  0  0  0  0  0  0  0  0  0  0
  -36.5687    2.4539  -44.8304 C   0  0  0  0  0  0  0  0  0  0  0  0
  -37.7063    2.0627  -44.6769 O   0  0  0  0  0  0  0  0  0  0  0  0
  -36.1984    3.6564  -44.3471 N   0  0  0  0  0  0  0  0  0  0  0  0
  -37.1582    4.5099  -43.6306 C   0  0  0  0  0  0  0  0  0  0  0  0
  -36.5301    4.9380  -42.3000 C   0  0  0  0  0  0  0  0  0  0  0  0
  -35.2213    5.5540  -42.5557 N   0  0  0  0  0  0  0  0  0  0  0  0
  -34.2878    4.5919  -43.1565 C   0  0  0  0  0  0  0  0  0  0  0  0
  -34.8224    4.1471  -44.5169 C   0  0  0  0  0  0  0  0  0  0  0  0
  -34.5707    6.2272  -41.1247 X   0  0  0  0  0  0  0  0  0  0  0  0
  1  2  1  0  0  0  0
  2  3  1  0  0  0  0
  3  4  2  0  0  0  0
  3  5  1  0  0  0  0
  5  6  1  0  0  0  0
  5 10  1  0  0  0  0
  6  7  1  0  0  0  0
  7  8  1  0  0  0  0
  8  9  1  0  0  0  0
  8 11  1  0  0  0  0
  9 10  1  0  0  0  0
M  END
> <Index>
3696

> <PropertyFieldDistance>
nan

$$$$
4549608
BBcorina  12272117083D 1   1.00000     0.00000 
CORINA 4.3.0 0026  30.10.2019
 15 16  0  0  0  0  0  0  0  0999 V2000
  -34.6990    6.1329  -41.2510 C   0  0  0  0  0  0  0  0  0  0  0  0
  -35.2284    5.4972  -42.4650 N   0  0  0  0  0  0  0  0  0  0  0  0
  -36.5394    4.8844  -42.2097 C   0  0  0  0  0  0  0  0  0  0  0  0
  -37.0909    4.3041  -43.5141 C   0  0  0  0  0  0  0  0  0  0  0  0
  -36.1443    3.3137  -44.0456 N   0  0  0  0  0  0  0  0  0  0  0  0
  -36.6737    2.6780  -45.2595 C   0  0  0  0  0  0  0  0  0  0  0  0
  -35.6236    1.7264  -45.8364 C   0  0  0  0  0  0  0  0  0  0  0  0
  -36.1527    1.1055  -47.1322 C   0  0  0  0  0  0  0  0  0  0  0  0
  -35.1238    0.1093  -47.6718 C   0  0  0  0  0  0  0  0  0  0  0  0
  -34.8811   -0.9367  -46.6701 N   0  0  0  0  0  0  0  0  0  0  0  0
  -34.3283   -0.3696  -45.4336 C   0  0  0  0  0  0  0  0  0  0  0  0
  -35.3333    0.6123  -44.8270 C   0  0  0  0  0  0  0  0  0  0  0  0
  -34.8333    3.9265  -44.3009 C   0  0  0  0  0  0  0  0  0  0  0  0
  -34.2817    4.5068  -42.9964 C   0  0  0  0  0  0  0  0  0  0  0  0
  -33.8599   -2.1579  -47.2943 X   0  0  0  0  0  0  0  0  0  0  0  0
  1  2  1  0  0  0  0
  2  3  1  0  0  0  0
  2 14  1  0  0  0  0
  3  4  1  0  0  0  0
  4  5  1  0  0  0  0
  5  6  1  0  0  0  0
  5 13  1  0  0  0  0
  6  7  1  0  0  0  0
  7  8  1  0  0  0  0
  7 12  1  0  0  0  0
  8  9  1  0  0  0  0
  9 10  1  0  0  0  0
 10 11  1  0  0  0  0
 10 15  1  0  0  0  0
 11 12  1  0  0  0  0
 13 14  1  0  0  0  0
M  END
> <Index>
3701

> <PropertyFieldDistance>
nan

$$$$
4836948
BBcorina  12272117083D 1   1.00000     0.00000 
CORINA 4.3.0 0026  30.10.2019
 14 14  0  0  0  0  0  0  0  0999 V2000
  -37.6078    0.5461  -46.8951 C   0  0  0  0  0  0  0  0  0  0  0  0
  -36.1851    0.5870  -46.5317 N   0  0  0  0  0  0  0  0  0  0  0  0
  -35.3423    0.1559  -47.6549 C   0  0  0  0  0  0  0  0  0  0  0  0
  -35.7987    1.9261  -46.0674 C   0  0  0  0  0  0  0  0  0  0  0  0
  -36.5188    2.2380  -44.7539 C   0  0  0  0  0  0  0  0  0  0  0  0
  -36.1324    3.5770  -44.2896 N   0  0  0  0  0  0  0  0  0  0  0  0
  -36.9749    4.0081  -43.1668 C   0  0  0  0  0  0  0  0  0  0  0  0
  -36.6429    5.4577  -42.8054 C   0  0  0  0  0  0  0  0  0  0  0  0
  -35.1631    5.5577  -42.4253 C   0  0  0  0  0  0  0  0  0  0  0  0
  -34.8110    7.0151  -42.1201 C   0  0  0  0  0  0  0  0  0  0  0  0
  -33.4247    7.0938  -41.6406 N   0  0  0  0  0  0  0  0  0  0  0  0
  -34.3091    5.0575  -43.5936 C   0  0  0  0  0  0  0  0  0  0  0  0
  -34.7087    3.6195  -43.9322 C   0  0  0  0  0  0  0  0  0  0  0  0
  -32.9894    8.7093  -41.2871 X   0  0  0  0  0  0  0  0  0  0  0  0
  1  2  1  0  0  0  0
  2  3  1  0  0  0  0
  2  4  1  0  0  0  0
  4  5  1  0  0  0  0
  5  6  1  0  0  0  0
  6  7  1  0  0  0  0
  6 13  1  0  0  0  0
  7  8  1  0  0  0  0
  8  9  1  0  0  0  0
  9 10  1  0  0  0  0
  9 12  1  0  0  0  0
 10 11  1  0  0  0  0
 11 14  1  0  0  0  0
 12 13  1  0  0  0  0
M  END
> <Index>
3703

> <PropertyFieldDistance>
nan

$$$$
1323204
BBcorina  12272117083D 1   1.00000     0.00000 
CORINA 4.3.0 0026  30.10.2019
 12 12  0  0  0  0  0  0  0  0999 V2000
  -36.8072    9.3509  -39.5545 C   0  0  0  0  0  0  0  0  0  0  0  0
  -35.7860    8.3043  -39.9190 C   0  0  0  0  0  0  0  0  0  0  0  0
  -34.8266    8.1173  -39.2010 O   0  0  0  0  0  0  0  0  0  0  0  0
  -35.9388    7.5762  -41.0427 N   0  0  0  0  0  0  0  0  0  0  0  0
  -34.9460    6.5589  -41.3971 C   0  0  0  0  0  0  0  0  0  0  0  0
  -35.3535    5.8833  -42.7079 C   0  0  0  0  0  0  0  0  0  0  0  0
  -36.6585    5.1099  -42.5008 C   0  0  0  0  0  0  0  0  0  0  0  0
  -37.0291    4.3869  -43.7977 C   0  0  0  0  0  0  0  0  0  0  0  0
  -35.9480    3.4664  -44.1723 N   0  0  0  0  0  0  0  0  0  0  0  0
  -34.6958    4.1916  -44.4226 C   0  0  0  0  0  0  0  0  0  0  0  0
  -34.2559    4.9088  -43.1442 C   0  0  0  0  0  0  0  0  0  0  0  0
  -36.3899    2.5211  -45.5270 X   0  0  0  0  0  0  0  0  0  0  0  0
  1  2  1  0  0  0  0
  2  3  2  0  0  0  0
  2  4  1  0  0  0  0
  4  5  1  0  0  0  0
  5  6  1  0  0  0  0
  6  7  1  0  0  0  0
  6 11  1  0  0  0  0
  7  8  1  0  0  0  0
  8  9  1  0  0  0  0
  9 10  1  0  0  0  0
  9 12  1  0  0  0  0
 10 11  1  0  0  0  0
M  END
> <Index>
3704

> <PropertyFieldDistance>
nan

$$$$
1282058
BBcorina  12272117083D 1   1.00000     0.00000 
CORINA 4.3.0 0026  30.10.2019
 14 15  0  0  0  0  0  0  0  0999 V2000
  -36.7592    0.7443  -44.0393 N   0  0  0  0  0  0  0  0  0  0  0  0
  -36.9790    1.5838  -45.2246 C   0  0  0  0  0  0  0  0  0  0  0  0
  -35.8018    2.5462  -45.3935 C   0  0  0  0  0  0  0  0  0  0  0  0
  -34.5233    1.7356  -45.5648 C   0  0  0  0  0  0  0  0  0  0  0  0
  -33.8125    2.0308  -46.9016 C   0  0  0  0  0  0  0  0  0  0  0  0
  -35.1867    2.6283  -47.9654 S   0  0  0  0  0  0  0  0  0  0  0  0
  -36.0840    3.4688  -46.5971 C   0  0  0  0  0  0  0  0  0  0  0  0
  -35.6840    3.3685  -44.1819 N   0  0  0  0  0  0  0  0  0  0  0  0
  -36.9178    4.1307  -43.9406 C   0  0  0  0  0  0  0  0  0  0  0  0
  -36.7742    4.9254  -42.6400 C   0  0  0  0  0  0  0  0  0  0  0  0
  -35.6240    5.7708  -42.7283 O   0  0  0  0  0  0  0  0  0  0  0  0
  -34.4046    5.0613  -42.9623 C   0  0  0  0  0  0  0  0  0  0  0  0
  -34.5242    4.2679  -44.2662 C   0  0  0  0  0  0  0  0  0  0  0  0
  -37.9781   -0.4464  -43.8970 X   0  0  0  0  0  0  0  0  0  0  0  0
  1  2  1  0  0  0  0
  1 14  1  0  0  0  0
  2  3  1  0  0  0  0
  3  4  1  0  0  0  0
  3  7  1  0  0  0  0
  3  8  1  0  0  0  0
  4  5  1  0  0  0  0
  5  6  1  0  0  0  0
  6  7  1  0  0  0  0
  8  9  1  0  0  0  0
  8 13  1  0  0  0  0
  9 10  1  0  0  0  0
 10 11  1  0  0  0  0
 11 12  1  0  0  0  0
 12 13  1  0  0  0  0
M  END
> <Index>
3710

> <PropertyFieldDistance>
nan

$$$$
1281994
BBcorina  12272117083D 1   1.00000     0.00000 
CORINA 4.3.0 0026  30.10.2019
 14 15  0  0  0  0  0  0  0  0999 V2000
  -34.9760    6.8880  -41.8708 N   0  0  0  0  0  0  0  0  0  0  0  0
  -35.3851    6.0001  -42.9673 C   0  0  0  0  0  0  0  0  0  0  0  0
  -36.6584    5.2485  -42.5691 C   0  0  0  0  0  0  0  0  0  0  0  0
  -37.0463    4.2822  -43.6905 C   0  0  0  0  0  0  0  0  0  0  0  0
  -35.9491    3.3341  -43.9227 N   0  0  0  0  0  0  0  0  0  0  0  0
  -34.7288    4.0290  -44.3521 C   0  0  0  0  0  0  0  0  0  0  0  0
  -34.2718    4.9878  -43.2503 C   0  0  0  0  0  0  0  0  0  0  0  0
  -36.3202    2.3560  -44.8483 C   0  0  0  0  0  0  0  0  0  0  0  0
  -35.4206    1.3605  -45.2074 C   0  0  0  0  0  0  0  0  0  0  0  0
  -35.7906    0.3951  -46.1232 C   0  0  0  0  0  0  0  0  0  0  0  0
  -37.0531    0.4223  -46.6868 C   0  0  0  0  0  0  0  0  0  0  0  0
  -37.9531    1.4088  -46.3273 C   0  0  0  0  0  0  0  0  0  0  0  0
  -37.5896    2.3771  -45.4121 C   0  0  0  0  0  0  0  0  0  0  0  0
  -34.5578    5.9887  -40.4777 X   0  0  0  0  0  0  0  0  0  0  0  0
  1  2  1  0  0  0  0
  1 14  1  0  0  0  0
  2  3  1  0  0  0  0
  2  7  1  0  0  0  0
  3  4  1  0  0  0  0
  4  5  1  0  0  0  0
  5  6  1  0  0  0  0
  5  8  1  0  0  0  0
  6  7  1  0  0  0  0
  8  9  2  0  0  0  0
  8 13  1  0  0  0  0
  9 10  1  0  0  0  0
 10 11  2  0  0  0  0
 11 12  1  0  0  0  0
 12 13  2  0  0  0  0
M  END
> <Index>
3721

> <PropertyFieldDistance>
nan

$$$$
2196672
BBcorina  12272117083D 1   1.00000     0.00000 
CORINA 4.3.0 0026  30.10.2019
 18 19  0  0  0  0  0  0  0  0999 V2000
  -35.0765   -3.9527  -46.6027 Cl  0  0  0  0  0  0  0  0  0  0  0  0
  -35.0333   -2.2829  -46.1298 C   0  0  0  0  0  0  0  0  0  0  0  0
  -36.1654   -1.4982  -46.2618 C   0  0  0  0  0  0  0  0  0  0  0  0
  -36.1336   -0.1694  -45.8863 C   0  0  0  0  0  0  0  0  0  0  0  0
  -34.9643    0.3788  -45.3760 C   0  0  0  0  0  0  0  0  0  0  0  0
  -34.9293    1.7256  -44.9951 N   0  0  0  0  0  0  0  0  0  0  0  0
  -36.0299    2.3093  -44.4807 C   0  0  0  0  0  0  0  0  0  0  0  0
  -37.0224    1.6437  -44.2563 O   0  0  0  0  0  0  0  0  0  0  0  0
  -36.0303    3.6306  -44.2152 N   0  0  0  0  0  0  0  0  0  0  0  0
  -37.2525    4.2423  -43.6580 C   0  0  0  0  0  0  0  0  0  0  0  0
  -36.9098    5.2493  -42.5419 C   0  0  0  0  0  0  0  0  0  0  0  0
  -35.7830    4.7064  -41.6911 C   0  0  0  0  0  0  0  0  0  0  0  0
  -34.5084    5.1880  -42.2211 N   0  0  0  0  0  0  0  0  0  0  0  0
  -33.9193    4.4087  -43.2440 C   0  0  0  0  0  0  0  0  0  0  0  0
  -34.8329    4.3975  -44.4933 C   0  0  0  0  0  0  0  0  0  0  0  0
  -33.8283   -0.4094  -45.2495 C   0  0  0  0  0  0  0  0  0  0  0  0
  -33.8667   -1.7389  -45.6220 C   0  0  0  0  0  0  0  0  0  0  0  0
  -33.3937    5.4869  -40.9594 X   0  0  0  0  0  0  0  0  0  0  0  0
  1  2  1  0  0  0  0
  2  3  2  0  0  0  0
  2 17  1  0  0  0  0
  3  4  1  0  0  0  0
  4  5  2  0  0  0  0
  5  6  1  0  0  0  0
  5 16  1  0  0  0  0
  6  7  1  0  0  0  0
  7  8  2  0  0  0  0
  7  9  1  0  0  0  0
  9 10  1  0  0  0  0
  9 15  1  0  0  0  0
 10 11  1  0  0  0  0
 11 12  1  0  0  0  0
 12 13  1  0  0  0  0
 13 14  1  0  0  0  0
 13 18  1  0  0  0  0
 14 15  1  0  0  0  0
 16 17  2  0  0  0  0
M  END
> <Index>
3727

> <PropertyFieldDistance>
nan

$$$$
1281954
BBcorina  12272117083D 1   1.00000     0.00000 
CORINA 4.3.0 0026  30.10.2019
 15 16  0  0  0  0  0  0  0  0999 V2000
  -37.2089   -1.2530  -46.5932 F   0  0  0  0  0  0  0  0  0  0  0  0
  -36.9227   -0.0517  -46.0454 C   0  0  0  0  0  0  0  0  0  0  0  0
  -35.8785    0.7061  -46.5480 C   0  0  0  0  0  0  0  0  0  0  0  0
  -35.5838    1.9344  -45.9892 C   0  0  0  0  0  0  0  0  0  0  0  0
  -36.3360    2.4094  -44.9228 C   0  0  0  0  0  0  0  0  0  0  0  0
  -37.3795    1.6454  -44.4170 C   0  0  0  0  0  0  0  0  0  0  0  0
  -37.6737    0.4198  -44.9819 C   0  0  0  0  0  0  0  0  0  0  0  0
  -36.0394    3.6526  -44.3557 N   0  0  0  0  0  0  0  0  0  0  0  0
  -36.9539    3.9570  -43.2478 C   0  0  0  0  0  0  0  0  0  0  0  0
  -36.6957    5.3803  -42.7480 C   0  0  0  0  0  0  0  0  0  0  0  0
  -35.2420    5.4962  -42.2811 C   0  0  0  0  0  0  0  0  0  0  0  0
  -34.3112    5.1271  -43.4396 C   0  0  0  0  0  0  0  0  0  0  0  0
  -34.6385    3.7112  -43.9193 C   0  0  0  0  0  0  0  0  0  0  0  0
  -34.9718    6.8757  -41.8546 N   0  0  0  0  0  0  0  0  0  0  0  0
  -35.3277    7.9850  -43.1065 X   0  0  0  0  0  0  0  0  0  0  0  0
  1  2  1  0  0  0  0
  2  3  2  0  0  0  0
  2  7  1  0  0  0  0
  3  4  1  0  0  0  0
  4  5  2  0  0  0  0
  5  6  1  0  0  0  0
  5  8  1  0  0  0  0
  6  7  2  0  0  0  0
  8  9  1  0  0  0  0
  8 13  1  0  0  0  0
  9 10  1  0  0  0  0
 10 11  1  0  0  0  0
 11 12  1  0  0  0  0
 11 14  1  0  0  0  0
 12 13  1  0  0  0  0
 14 15  1  0  0  0  0
M  END
> <Index>
3737

> <PropertyFieldDistance>
nan

$$$$
9046560
BBcorina  12272117083D 1   1.00000     0.00000 
CORINA 4.3.0 0026  30.10.2019
 13 14  0  0  0  0  0  0  0  0999 V2000
  -35.9479    3.4664  -44.1723 N   0  0  0  0  0  0  0  0  0  0  0  0
  -37.0290    4.3869  -43.7977 C   0  0  0  0  0  0  0  0  0  0  0  0
  -36.6587    5.1099  -42.5007 C   0  0  0  0  0  0  0  0  0  0  0  0
  -35.3534    5.8832  -42.7080 C   0  0  0  0  0  0  0  0  0  0  0  0
  -34.2559    4.9088  -43.1443 C   0  0  0  0  0  0  0  0  0  0  0  0
  -34.6958    4.1916  -44.4226 C   0  0  0  0  0  0  0  0  0  0  0  0
  -34.9631    6.5302  -41.4528 N   0  0  0  0  0  0  0  0  0  0  0  0
  -34.1623    7.6612  -41.4760 C   0  0  0  0  0  0  0  0  0  0  0  0
  -33.7010    8.2230  -42.5500 N   0  0  0  0  0  0  0  0  0  0  0  0
  -32.9540    9.3005  -42.3865 C   0  0  0  0  0  0  0  0  0  0  0  0
  -32.7685    9.6591  -41.1158 C   0  0  0  0  0  0  0  0  0  0  0  0
  -33.6328    8.5149  -40.0925 S   0  0  0  0  0  0  0  0  0  0  0  0
  -36.3899    2.5210  -45.5270 X   0  0  0  0  0  0  0  0  0  0  0  0
  1  2  1  0  0  0  0
  1  6  1  0  0  0  0
  1 13  1  0  0  0  0
  2  3  1  0  0  0  0
  3  4  1  0  0  0  0
  4  5  1  0  0  0  0
  4  7  1  0  0  0  0
  5  6  1  0  0  0  0
  7  8  1  0  0  0  0
  8  9  2  0  0  0  0
  8 12  1  0  0  0  0
  9 10  1  0  0  0  0
 10 11  2  0  0  0  0
 11 12  1  0  0  0  0
M  END
> <Index>
3739

> <PropertyFieldDistance>
nan

$$$$
2910518
BBcorina  12272117083D 1   1.00000     0.00000 
CORINA 4.3.0 0026  30.10.2019
 11 11  0  0  0  0  0  0  0  0999 V2000
  -30.5160    4.6647  -43.0396 C   0  0  0  0  0  0  0  0  0  0  0  0
  -31.8459    4.7880  -43.6092 O   0  0  0  0  0  0  0  0  0  0  0  0
  -32.8686    4.9108  -42.7485 C   0  0  0  0  0  0  0  0  0  0  0  0
  -32.6594    4.9153  -41.5585 O   0  0  0  0  0  0  0  0  0  0  0  0
  -34.2769    5.0496  -43.2665 C   0  0  0  0  0  0  0  0  0  0  0  0
  -35.2461    5.1675  -42.0870 C   0  0  0  0  0  0  0  0  0  0  0  0
  -36.6793    5.2476  -42.6202 C   0  0  0  0  0  0  0  0  0  0  0  0
  -36.9723    4.0087  -43.4695 C   0  0  0  0  0  0  0  0  0  0  0  0
  -36.0191    3.9414  -44.5845 N   0  0  0  0  0  0  0  0  0  0  0  0
  -34.6396    3.8164  -44.0971 C   0  0  0  0  0  0  0  0  0  0  0  0
  -36.4111    2.6622  -45.6495 X   0  0  0  0  0  0  0  0  0  0  0  0
  1  2  1  0  0  0  0
  2  3  1  0  0  0  0
  3  4  2  0  0  0  0
  3  5  1  0  0  0  0
  5  6  1  0  0  0  0
  5 10  1  0  0  0  0
  6  7  1  0  0  0  0
  7  8  1  0  0  0  0
  8  9  1  0  0  0  0
  9 10  1  0  0  0  0
  9 11  1  0  0  0  0
M  END
> <Index>
3748

> <PropertyFieldDistance>
nan

$$$$
1307878
BBcorina  12272117083D 1   1.00000     0.00000 
CORINA 4.3.0 0026  30.10.2019
 12 12  0  0  0  0  0  0  0  0999 V2000
  -37.0925    0.6308  -46.3493 C   0  0  0  0  0  0  0  0  0  0  0  0
  -37.1133    1.9529  -45.5795 C   0  0  0  0  0  0  0  0  0  0  0  0
  -35.7037    2.2733  -45.0780 C   0  0  0  0  0  0  0  0  0  0  0  0
  -35.6992    3.5981  -44.4433 N   0  0  0  0  0  0  0  0  0  0  0  0
  -36.8443    3.7513  -43.5369 C   0  0  0  0  0  0  0  0  0  0  0  0
  -36.8892    5.1866  -43.0077 C   0  0  0  0  0  0  0  0  0  0  0  0
  -35.5842    5.4937  -42.2680 C   0  0  0  0  0  0  0  0  0  0  0  0
  -34.4043    5.2797  -43.2203 C   0  0  0  0  0  0  0  0  0  0  0  0
  -33.0928    5.5265  -42.4720 C   0  0  0  0  0  0  0  0  0  0  0  0
  -34.4315    3.8418  -43.7433 C   0  0  0  0  0  0  0  0  0  0  0  0
  -37.5737    3.0292  -46.4669 N   0  0  0  0  0  0  0  0  0  0  0  0
  -39.2739    3.1972  -46.3954 X   0  0  0  0  0  0  0  0  0  0  0  0
  1  2  1  0  0  0  0
  2  3  1  0  0  0  0
  2 11  1  0  0  0  0
  3  4  1  0  0  0  0
  4  5  1  0  0  0  0
  4 10  1  0  0  0  0
  5  6  1  0  0  0  0
  6  7  1  0  0  0  0
  7  8  1  0  0  0  0
  8  9  1  0  0  0  0
  8 10  1  0  0  0  0
 11 12  1  0  0  0  0
M  END
> <Index>
3749

> <PropertyFieldDistance>
nan

$$$$
1289574
BBcorina  12272117083D 1   1.00000     0.00000 
CORINA 4.3.0 0026  30.10.2019
 14 14  0  0  0  0  0  0  0  0999 V2000
  -32.8210    5.0435  -43.2276 C   0  0  0  0  0  0  0  0  0  0  0  0
  -34.3052    5.0347  -43.5990 C   0  0  0  0  0  0  0  0  0  0  0  0
  -35.1340    5.5150  -42.4045 C   0  0  0  0  0  0  0  0  0  0  0  0
  -36.6207    5.4470  -42.7644 C   0  0  0  0  0  0  0  0  0  0  0  0
  -36.9059    6.3879  -43.9368 C   0  0  0  0  0  0  0  0  0  0  0  0
  -36.9797    4.0130  -43.1599 C   0  0  0  0  0  0  0  0  0  0  0  0
  -36.1607    3.6006  -44.3070 N   0  0  0  0  0  0  0  0  0  0  0  0
  -34.7313    3.6126  -43.9704 C   0  0  0  0  0  0  0  0  0  0  0  0
  -36.5740    2.2807  -44.8016 C   0  0  0  0  0  0  0  0  0  0  0  0
  -35.7138    1.8953  -46.0068 C   0  0  0  0  0  0  0  0  0  0  0  0
  -36.3940    1.2413  -43.6933 C   0  0  0  0  0  0  0  0  0  0  0  0
  -38.0449    2.3305  -45.2199 C   0  0  0  0  0  0  0  0  0  0  0  0
  -38.2392    3.4081  -46.1992 N   0  0  0  0  0  0  0  0  0  0  0  0
  -39.8798    3.5217  -46.6679 X   0  0  0  0  0  0  0  0  0  0  0  0
  1  2  1  0  0  0  0
  2  3  1  0  0  0  0
  2  8  1  0  0  0  0
  3  4  1  0  0  0  0
  4  5  1  0  0  0  0
  4  6  1  0  0  0  0
  6  7  1  0  0  0  0
  7  8  1  0  0  0  0
  7  9  1  0  0  0  0
  9 10  1  0  0  0  0
  9 11  1  0  0  0  0
  9 12  1  0  0  0  0
 12 13  1  0  0  0  0
 13 14  1  0  0  0  0
M  END
> <Index>
3756

> <PropertyFieldDistance>
nan

$$$$
1319196
BBcorina  12272117083D 1   1.00000     0.00000 
CORINA 4.3.0 0026  30.10.2019
 13 13  0  0  0  0  0  0  0  0999 V2000
  -36.9621    0.5819  -46.4007 C   0  0  0  0  0  0  0  0  0  0  0  0
  -36.9040    1.5089  -45.1848 C   0  0  0  0  0  0  0  0  0  0  0  0
  -35.8516    2.5941  -45.4208 C   0  0  0  0  0  0  0  0  0  0  0  0
  -35.7068    3.4080  -44.2065 N   0  0  0  0  0  0  0  0  0  0  0  0
  -36.9355    4.1630  -43.9295 C   0  0  0  0  0  0  0  0  0  0  0  0
  -36.8015    4.8828  -42.5856 C   0  0  0  0  0  0  0  0  0  0  0  0
  -38.0735    5.6861  -42.3073 C   0  0  0  0  0  0  0  0  0  0  0  0
  -35.5990    5.8294  -42.6368 C   0  0  0  0  0  0  0  0  0  0  0  0
  -34.3404    5.0255  -42.9746 C   0  0  0  0  0  0  0  0  0  0  0  0
  -34.0779    3.9995  -41.8702 C   0  0  0  0  0  0  0  0  0  0  0  0
  -34.5458    4.3015  -44.3072 C   0  0  0  0  0  0  0  0  0  0  0  0
  -36.5455    0.7301  -43.9920 N   0  0  0  0  0  0  0  0  0  0  0  0
  -37.9422    0.1290  -43.2098 X   0  0  0  0  0  0  0  0  0  0  0  0
  1  2  1  0  0  0  0
  2  3  1  0  0  0  0
  2 12  1  0  0  0  0
  3  4  1  0  0  0  0
  4  5  1  0  0  0  0
  4 11  1  0  0  0  0
  5  6  1  0  0  0  0
  6  7  1  0  0  0  0
  6  8  1  0  0  0  0
  8  9  1  0  0  0  0
  9 10  1  0  0  0  0
  9 11  1  0  0  0  0
 12 13  1  0  0  0  0
M  END
> <Index>
3757

> <PropertyFieldDistance>
nan

$$$$
1290572
BBcorina  12272117083D 1   1.00000     0.00000 
CORINA 4.3.0 0026  30.10.2019
 13 13  0  0  0  0  0  0  0  0999 V2000
  -32.8245    5.0626  -43.2182 C   0  0  0  0  0  0  0  0  0  0  0  0
  -34.3067    5.0429  -43.5977 C   0  0  0  0  0  0  0  0  0  0  0  0
  -35.1442    5.5313  -42.4126 C   0  0  0  0  0  0  0  0  0  0  0  0
  -36.6287    5.4516  -42.7795 C   0  0  0  0  0  0  0  0  0  0  0  0
  -36.9780    4.0116  -43.1619 C   0  0  0  0  0  0  0  0  0  0  0  0
  -36.1507    3.5917  -44.3002 N   0  0  0  0  0  0  0  0  0  0  0  0
  -34.7233    3.6147  -43.9563 C   0  0  0  0  0  0  0  0  0  0  0  0
  -36.5545    2.2643  -44.7831 C   0  0  0  0  0  0  0  0  0  0  0  0
  -35.7436    1.9070  -46.0304 C   0  0  0  0  0  0  0  0  0  0  0  0
  -36.2960    1.2240  -43.6914 C   0  0  0  0  0  0  0  0  0  0  0  0
  -38.0444    2.2795  -45.1306 C   0  0  0  0  0  0  0  0  0  0  0  0
  -38.2926    3.2784  -46.1788 N   0  0  0  0  0  0  0  0  0  0  0  0
  -39.9497    3.3281  -46.5978 X   0  0  0  0  0  0  0  0  0  0  0  0
  1  2  1  0  0  0  0
  2  3  1  0  0  0  0
  2  7  1  0  0  0  0
  3  4  1  0  0  0  0
  4  5  1  0  0  0  0
  5  6  1  0  0  0  0
  6  7  1  0  0  0  0
  6  8  1  0  0  0  0
  8  9  1  0  0  0  0
  8 10  1  0  0  0  0
  8 11  1  0  0  0  0
 11 12  1  0  0  0  0
 12 13  1  0  0  0  0
M  END
> <Index>
3758

> <PropertyFieldDistance>
nan

$$$$
2009764
BBcorina  12272117083D 1   1.00000     0.00000 
CORINA 4.3.0 0026  30.10.2019
 10 10  0  0  0  0  0  0  0  0999 V2000
  -37.6835    6.1405  -42.1390 C   0  0  0  0  0  0  0  0  0  0  0  0
  -36.6101    5.1169  -42.5144 C   0  0  0  0  0  0  0  0  0  0  0  0
  -37.0250    4.3873  -43.7948 C   0  0  0  0  0  0  0  0  0  0  0  0
  -35.9554    3.4606  -44.1930 N   0  0  0  0  0  0  0  0  0  0  0  0
  -34.6941    4.1836  -44.4110 C   0  0  0  0  0  0  0  0  0  0  0  0
  -34.3026    4.9152  -43.1245 C   0  0  0  0  0  0  0  0  0  0  0  0
  -34.0474    3.8944  -42.0136 C   0  0  0  0  0  0  0  0  0  0  0  0
  -33.0328    5.7333  -43.3680 C   0  0  0  0  0  0  0  0  0  0  0  0
  -35.3661    5.7886  -42.7352 O   0  0  0  0  0  0  0  0  0  0  0  0
  -36.4010    2.5723  -45.5847 X   0  0  0  0  0  0  0  0  0  0  0  0
  1  2  1  0  0  0  0
  2  3  1  0  0  0  0
  2  9  1  0  0  0  0
  3  4  1  0  0  0  0
  4  5  1  0  0  0  0
  4 10  1  0  0  0  0
  5  6  1  0  0  0  0
  6  7  1  0  0  0  0
  6  8  1  0  0  0  0
  6  9  1  0  0  0  0
M  END
> <Index>
3760

> <PropertyFieldDistance>
nan

$$$$
2028600
BBcorina  12272117083D 1   1.00000     0.00000 
CORINA 4.3.0 0026  30.10.2019
 10 10  0  0  0  0  0  0  0  0999 V2000
  -38.1192    0.1804  -45.8502 C   0  0  0  0  0  0  0  0  0  0  0  0
  -36.6117    0.2152  -46.1093 C   0  0  0  0  0  0  0  0  0  0  0  0
  -36.3243   -0.3061  -47.5187 C   0  0  0  0  0  0  0  0  0  0  0  0
  -34.8168   -0.2713  -47.7779 C   0  0  0  0  0  0  0  0  0  0  0  0
  -34.3110    1.1673  -47.6532 C   0  0  0  0  0  0  0  0  0  0  0  0
  -34.5985    1.6887  -46.2438 C   0  0  0  0  0  0  0  0  0  0  0  0
  -36.1059    1.6538  -45.9846 C   0  0  0  0  0  0  0  0  0  0  0  0
  -36.3933    2.1751  -44.5753 C   0  0  0  0  0  0  0  0  0  0  0  0
  -36.0172    3.5927  -44.4913 N   0  0  0  0  0  0  0  0  0  0  0  0
  -36.3230    4.2164  -42.9288 X   0  0  0  0  0  0  0  0  0  0  0  0
  1  2  1  0  0  0  0
  2  3  1  0  0  0  0
  2  7  1  0  0  0  0
  3  4  1  0  0  0  0
  4  5  1  0  0  0  0
  5  6  1  0  0  0  0
  6  7  1  0  0  0  0
  7  8  1  0  0  0  0
  8  9  1  0  0  0  0
  9 10  1  0  0  0  0
M  END
> <Index>
3803

> <PropertyFieldDistance>
nan

$$$$
1308798
BBcorina  12272117083D 1   1.00000     0.00000 
CORINA 4.3.0 0026  30.10.2019
 10 10  0  0  0  0  0  0  0  0999 V2000
  -34.6271   -0.1075  -47.7996 C   0  0  0  0  0  0  0  0  0  0  0  0
  -36.0923   -0.3719  -47.4471 C   0  0  0  0  0  0  0  0  0  0  0  0
  -36.9961    0.3467  -48.4508 C   0  0  0  0  0  0  0  0  0  0  0  0
  -36.7222    1.8510  -48.3978 C   0  0  0  0  0  0  0  0  0  0  0  0
  -37.0097    2.3724  -46.9884 C   0  0  0  0  0  0  0  0  0  0  0  0
  -36.1059    1.6538  -45.9847 C   0  0  0  0  0  0  0  0  0  0  0  0
  -36.3933    2.1751  -44.5752 C   0  0  0  0  0  0  0  0  0  0  0  0
  -36.0173    3.5927  -44.4913 N   0  0  0  0  0  0  0  0  0  0  0  0
  -36.3797    0.1494  -46.0377 C   0  0  0  0  0  0  0  0  0  0  0  0
  -36.3230    4.2164  -42.9287 X   0  0  0  0  0  0  0  0  0  0  0  0
  1  2  1  0  0  0  0
  2  3  1  0  0  0  0
  2  9  1  0  0  0  0
  3  4  1  0  0  0  0
  4  5  1  0  0  0  0
  5  6  1  0  0  0  0
  6  7  1  0  0  0  0
  6  9  1  0  0  0  0
  7  8  1  0  0  0  0
  8 10  1  0  0  0  0
M  END
> <Index>
3804

> <PropertyFieldDistance>
nan

$$$$
1308844
BBcorina  12272117083D 1   1.00000     0.00000 
CORINA 4.3.0 0026  30.10.2019
 10 10  0  0  0  0  0  0  0  0999 V2000
  -38.4613    0.0825  -48.0984 C   0  0  0  0  0  0  0  0  0  0  0  0
  -36.9961    0.3468  -48.4510 C   0  0  0  0  0  0  0  0  0  0  0  0
  -36.0923   -0.3718  -47.4473 C   0  0  0  0  0  0  0  0  0  0  0  0
  -36.3798    0.1495  -46.0378 C   0  0  0  0  0  0  0  0  0  0  0  0
  -36.1059    1.6538  -45.9847 C   0  0  0  0  0  0  0  0  0  0  0  0
  -36.3933    2.1751  -44.5752 C   0  0  0  0  0  0  0  0  0  0  0  0
  -36.0173    3.5927  -44.4913 N   0  0  0  0  0  0  0  0  0  0  0  0
  -37.0097    2.3725  -46.9884 C   0  0  0  0  0  0  0  0  0  0  0  0
  -36.7223    1.8512  -48.3979 C   0  0  0  0  0  0  0  0  0  0  0  0
  -36.3231    4.2162  -42.9287 X   0  0  0  0  0  0  0  0  0  0  0  0
  1  2  1  0  0  0  0
  2  3  1  0  0  0  0
  2  9  1  0  0  0  0
  3  4  1  0  0  0  0
  4  5  1  0  0  0  0
  5  6  1  0  0  0  0
  5  8  1  0  0  0  0
  6  7  1  0  0  0  0
  7 10  1  0  0  0  0
  8  9  1  0  0  0  0
M  END
> <Index>
3805

> <PropertyFieldDistance>
nan

$$$$
4639448
BBcorina  12272117083D 1   1.00000     0.00000 
CORINA 4.3.0 0026  30.10.2019
 14 14  0  0  0  0  0  0  0  0999 V2000
  -34.8602   -1.7813  -49.0568 N   0  0  0  0  0  0  0  0  0  0  0  0
  -35.9249   -0.9577  -48.4686 C   0  0  0  0  0  0  0  0  0  0  0  0
  -35.3426   -0.0765  -47.3937 C   0  0  0  0  0  0  0  0  0  0  0  0
  -34.1572   -0.1295  -47.1424 O   0  0  0  0  0  0  0  0  0  0  0  0
  -36.1389    0.7702  -46.7116 N   0  0  0  0  0  0  0  0  0  0  0  0
  -35.5716    1.6312  -45.6709 C   0  0  0  0  0  0  0  0  0  0  0  0
  -36.6796    2.4929  -45.0620 C   0  0  0  0  0  0  0  0  0  0  0  0
  -36.1108    3.3562  -44.0184 N   0  0  0  0  0  0  0  0  0  0  0  0
  -37.0879    4.3615  -43.5758 C   0  0  0  0  0  0  0  0  0  0  0  0
  -36.4762    5.1987  -42.4494 C   0  0  0  0  0  0  0  0  0  0  0  0
  -35.2595    5.7925  -42.9103 O   0  0  0  0  0  0  0  0  0  0  0  0
  -34.2849    4.8420  -43.3486 C   0  0  0  0  0  0  0  0  0  0  0  0
  -34.8745    4.0012  -44.4840 C   0  0  0  0  0  0  0  0  0  0  0  0
  -35.4796   -2.7985  -50.2841 X   0  0  0  0  0  0  0  0  0  0  0  0
  1  2  1  0  0  0  0
  1 14  1  0  0  0  0
  2  3  1  0  0  0  0
  3  4  2  0  0  0  0
  3  5  1  0  0  0  0
  5  6  1  0  0  0  0
  6  7  1  0  0  0  0
  7  8  1  0  0  0  0
  8  9  1  0  0  0  0
  8 13  1  0  0  0  0
  9 10  1  0  0  0  0
 10 11  1  0  0  0  0
 11 12  1  0  0  0  0
 12 13  1  0  0  0  0
M  END
> <Index>
3813

> <PropertyFieldDistance>
nan

$$$$
1319220
BBcorina  12272117083D 1   1.00000     0.00000 
CORINA 4.3.0 0026  30.10.2019
 14 15  0  0  0  0  0  0  0  0999 V2000
  -35.2536    0.2294  -47.6069 C   0  0  0  0  0  0  0  0  0  0  0  0
  -35.9944    0.9052  -46.4819 C   0  0  0  0  0  0  0  0  0  0  0  0
  -37.1210    0.4149  -45.9641 C   0  0  0  0  0  0  0  0  0  0  0  0
  -37.6529    1.5015  -44.6835 S   0  0  0  0  0  0  0  0  0  0  0  0
  -36.3051    2.5140  -44.9682 C   0  0  0  0  0  0  0  0  0  0  0  0
  -35.5799    2.0312  -45.9290 N   0  0  0  0  0  0  0  0  0  0  0  0
  -36.0281    3.6813  -44.2740 N   0  0  0  0  0  0  0  0  0  0  0  0
  -37.0025    3.9283  -43.2982 C   0  0  0  0  0  0  0  0  0  0  0  0
  -36.8209    5.3219  -42.6562 C   0  0  0  0  0  0  0  0  0  0  0  0
  -35.6644    5.2689  -41.6907 C   0  0  0  0  0  0  0  0  0  0  0  0
  -34.3775    5.6602  -42.3097 N   0  0  0  0  0  0  0  0  0  0  0  0
  -34.1781    5.1120  -43.6671 C   0  0  0  0  0  0  0  0  0  0  0  0
  -34.6401    3.6804  -43.7694 C   0  0  0  0  0  0  0  0  0  0  0  0
  -34.1847    7.3594  -42.3007 X   0  0  0  0  0  0  0  0  0  0  0  0
  1  2  1  0  0  0  0
  2  3  2  0  0  0  0
  2  6  1  0  0  0  0
  3  4  1  0  0  0  0
  4  5  1  0  0  0  0
  5  6  2  0  0  0  0
  5  7  1  0  0  0  0
  7  8  1  0  0  0  0
  7 13  1  0  0  0  0
  8  9  1  0  0  0  0
  9 10  1  0  0  0  0
 10 11  1  0  0  0  0
 11 12  1  0  0  0  0
 11 14  1  0  0  0  0
 12 13  1  0  0  0  0
M  END
> <Index>
3821

> <PropertyFieldDistance>
nan

$$$$
1951374
BBcorina  12272117083D 1   1.00000     0.00000 
CORINA 4.3.0 0026  30.10.2019
 13 14  0  0  0  0  0  0  0  0999 V2000
  -35.9631    3.5311  -44.3080 N   0  0  0  0  0  0  0  0  0  0  0  0
  -37.2711    4.2221  -44.2452 C   0  0  0  0  0  0  0  0  0  0  0  0
  -37.2571    5.4201  -43.2825 C   0  0  0  0  0  0  0  0  0  0  0  0
  -36.5061    5.1169  -42.0104 C   0  0  0  0  0  0  0  0  0  0  0  0
  -35.0996    5.5402  -42.1835 N   0  0  0  0  0  0  0  0  0  0  0  0
  -34.3136    4.6303  -42.9010 C   0  0  0  0  0  0  0  0  0  0  0  0
  -34.8293    4.4275  -44.3401 C   0  0  0  0  0  0  0  0  0  0  0  0
  -34.5183    5.8437  -40.9623 C   0  0  0  0  0  0  0  0  0  0  0  0
  -35.0941    5.6997  -39.8093 N   0  0  0  0  0  0  0  0  0  0  0  0
  -34.3904    6.0397  -38.7439 C   0  0  0  0  0  0  0  0  0  0  0  0
  -33.1646    6.4914  -39.0100 C   0  0  0  0  0  0  0  0  0  0  0  0
  -32.9378    6.4624  -40.7567 S   0  0  0  0  0  0  0  0  0  0  0  0
  -35.9127    2.4323  -45.6172 X   0  0  0  0  0  0  0  0  0  0  0  0
  1  2  1  0  0  0  0
  1  7  1  0  0  0  0
  1 13  1  0  0  0  0
  2  3  1  0  0  0  0
  3  4  1  0  0  0  0
  4  5  1  0  0  0  0
  5  6  1  0  0  0  0
  5  8  1  0  0  0  0
  6  7  1  0  0  0  0
  8  9  2  0  0  0  0
  8 12  1  0  0  0  0
  9 10  1  0  0  0  0
 10 11  2  0  0  0  0
 11 12  1  0  0  0  0
M  END
> <Index>
3822

> <PropertyFieldDistance>
nan

$$$$
1326774
BBcorina  12272117083D 1   1.00000     0.00000 
CORINA 4.3.0 0026  30.10.2019
 16 17  0  0  0  0  0  0  0  0999 V2000
  -34.6958    6.1511  -41.2749 C   0  0  0  0  0  0  0  0  0  0  0  0
  -35.2269    5.4981  -42.4789 N   0  0  0  0  0  0  0  0  0  0  0  0
  -36.5408    4.8952  -42.2147 C   0  0  0  0  0  0  0  0  0  0  0  0
  -37.0940    4.2962  -43.5100 C   0  0  0  0  0  0  0  0  0  0  0  0
  -36.1513    3.2932  -44.0245 N   0  0  0  0  0  0  0  0  0  0  0  0
  -36.6823    2.6401  -45.2284 C   0  0  0  0  0  0  0  0  0  0  0  0
  -35.6017    1.8050  -45.8652 C   0  0  0  0  0  0  0  0  0  0  0  0
  -35.4448    0.4814  -45.4974 C   0  0  0  0  0  0  0  0  0  0  0  0
  -34.4577   -0.2901  -46.0831 C   0  0  0  0  0  0  0  0  0  0  0  0
  -33.6254    0.2594  -47.0381 C   0  0  0  0  0  0  0  0  0  0  0  0
  -33.7805    1.5889  -47.4103 C   0  0  0  0  0  0  0  0  0  0  0  0
  -32.9399    2.1481  -48.3757 N   0  0  0  0  0  0  0  0  0  0  0  0
  -34.7724    2.3610  -46.8198 C   0  0  0  0  0  0  0  0  0  0  0  0
  -34.8373    3.8960  -44.2886 C   0  0  0  0  0  0  0  0  0  0  0  0
  -34.2842    4.4950  -42.9933 C   0  0  0  0  0  0  0  0  0  0  0  0
  -33.1325    3.7846  -48.8324 X   0  0  0  0  0  0  0  0  0  0  0  0
  1  2  1  0  0  0  0
  2  3  1  0  0  0  0
  2 15  1  0  0  0  0
  3  4  1  0  0  0  0
  4  5  1  0  0  0  0
  5  6  1  0  0  0  0
  5 14  1  0  0  0  0
  6  7  1  0  0  0  0
  7  8  2  0  0  0  0
  7 13  1  0  0  0  0
  8  9  1  0  0  0  0
  9 10  2  0  0  0  0
 10 11  1  0  0  0  0
 11 12  1  0  0  0  0
 11 13  2  0  0  0  0
 12 16  1  0  0  0  0
 14 15  1  0  0  0  0
M  END
> <Index>
3834

> <PropertyFieldDistance>
nan

$$$$
2028938
BBcorina  12272117083D 1   1.00000     0.00000 
CORINA 4.3.0 0026  30.10.2019
 11 11  0  0  0  0  0  0  0  0999 V2000
  -36.4078    0.4010  -46.3690 C   0  0  0  0  0  0  0  0  0  0  0  0
  -36.3549    1.3253  -45.1507 C   0  0  0  0  0  0  0  0  0  0  0  0
  -36.1268    2.7657  -45.6132 C   0  0  0  0  0  0  0  0  0  0  0  0
  -35.9571    3.6327  -44.4444 N   0  0  0  0  0  0  0  0  0  0  0  0
  -37.0555    4.3251  -43.7604 C   0  0  0  0  0  0  0  0  0  0  0  0
  -36.4873    4.7338  -42.3814 C   0  0  0  0  0  0  0  0  0  0  0  0
  -34.9726    4.8210  -42.6801 C   0  0  0  0  0  0  0  0  0  0  0  0
  -34.7745    3.9007  -43.8642 C   0  0  0  0  0  0  0  0  0  0  0  0
  -33.7043    3.4679  -44.2363 O   0  0  0  0  0  0  0  0  0  0  0  0
  -35.2531    0.9131  -44.2709 N   0  0  0  0  0  0  0  0  0  0  0  0
  -33.7529    0.9960  -45.0875 X   0  0  0  0  0  0  0  0  0  0  0  0
  1  2  1  0  0  0  0
  2  3  1  0  0  0  0
  2 10  1  0  0  0  0
  3  4  1  0  0  0  0
  4  5  1  0  0  0  0
  4  8  1  0  0  0  0
  5  6  1  0  0  0  0
  6  7  1  0  0  0  0
  7  8  1  0  0  0  0
  8  9  2  0  0  0  0
 10 11  1  0  0  0  0
M  END
> <Index>
3849

> <PropertyFieldDistance>
nan

$$$$
4601896
BBcorina  12272117083D 1   1.00000     0.00000 
CORINA 4.3.0 0026  30.10.2019
 10 10  0  0  0  0  0  0  0  0999 V2000
  -37.3302    6.7807  -40.7952 C   0  0  0  0  0  0  0  0  0  0  0  0
  -37.6835    6.1406  -42.1392 C   0  0  0  0  0  0  0  0  0  0  0  0
  -36.6101    5.1169  -42.5144 C   0  0  0  0  0  0  0  0  0  0  0  0
  -37.0250    4.3873  -43.7948 C   0  0  0  0  0  0  0  0  0  0  0  0
  -35.9555    3.4606  -44.1931 N   0  0  0  0  0  0  0  0  0  0  0  0
  -34.6941    4.1835  -44.4110 C   0  0  0  0  0  0  0  0  0  0  0  0
  -34.3026    4.9153  -43.1244 C   0  0  0  0  0  0  0  0  0  0  0  0
  -33.0332    5.7340  -43.3673 C   0  0  0  0  0  0  0  0  0  0  0  0
  -35.3668    5.7880  -42.7357 O   0  0  0  0  0  0  0  0  0  0  0  0
  -36.4009    2.5721  -45.5846 X   0  0  0  0  0  0  0  0  0  0  0  0
  1  2  1  0  0  0  0
  2  3  1  0  0  0  0
  3  4  1  0  0  0  0
  3  9  1  0  0  0  0
  4  5  1  0  0  0  0
  5  6  1  0  0  0  0
  5 10  1  0  0  0  0
  6  7  1  0  0  0  0
  7  8  1  0  0  0  0
  7  9  1  0  0  0  0
M  END
> <Index>
3858

> <PropertyFieldDistance>
nan

$$$$
1742640
BBcorina  12272117083D 1   1.00000     0.00000 
CORINA 4.3.0 0026  30.10.2019
 16 17  0  0  0  0  0  0  0  0999 V2000
  -33.4288    7.0908  -41.6346 N   0  0  0  0  0  0  0  0  0  0  0  0
  -34.8145    7.0118  -42.1159 C   0  0  0  0  0  0  0  0  0  0  0  0
  -35.1651    5.5548  -42.4240 C   0  0  0  0  0  0  0  0  0  0  0  0
  -36.6444    5.4542  -42.8062 C   0  0  0  0  0  0  0  0  0  0  0  0
  -36.9747    4.0049  -43.1704 C   0  0  0  0  0  0  0  0  0  0  0  0
  -36.1305    3.5764  -44.2930 N   0  0  0  0  0  0  0  0  0  0  0  0
  -36.5153    2.2380  -44.7601 C   0  0  0  0  0  0  0  0  0  0  0  0
  -35.8041    1.9335  -46.0533 C   0  0  0  0  0  0  0  0  0  0  0  0
  -34.5666    1.3179  -46.0333 C   0  0  0  0  0  0  0  0  0  0  0  0
  -33.9146    1.0378  -47.2196 C   0  0  0  0  0  0  0  0  0  0  0  0
  -34.5002    1.3733  -48.4260 C   0  0  0  0  0  0  0  0  0  0  0  0
  -35.7372    1.9902  -48.4460 C   0  0  0  0  0  0  0  0  0  0  0  0
  -36.3896    2.2695  -47.2598 C   0  0  0  0  0  0  0  0  0  0  0  0
  -34.7073    3.6195  -43.9337 C   0  0  0  0  0  0  0  0  0  0  0  0
  -34.3093    5.0572  -43.5922 C   0  0  0  0  0  0  0  0  0  0  0  0
  -32.9952    8.7060  -41.2778 X   0  0  0  0  0  0  0  0  0  0  0  0
  1  2  1  0  0  0  0
  1 16  1  0  0  0  0
  2  3  1  0  0  0  0
  3  4  1  0  0  0  0
  3 15  1  0  0  0  0
  4  5  1  0  0  0  0
  5  6  1  0  0  0  0
  6  7  1  0  0  0  0
  6 14  1  0  0  0  0
  7  8  1  0  0  0  0
  8  9  2  0  0  0  0
  8 13  1  0  0  0  0
  9 10  1  0  0  0  0
 10 11  2  0  0  0  0
 11 12  1  0  0  0  0
 12 13  2  0  0  0  0
 14 15  1  0  0  0  0
M  END
> <Index>
3874

> <PropertyFieldDistance>
nan

$$$$
2206460
BBcorina  12272117083D 1   1.00000     0.00000 
CORINA 4.3.0 0026  30.10.2019
 15 16  0  0  0  0  0  0  0  0999 V2000
  -34.8246    6.9572  -42.1337 N   0  0  0  0  0  0  0  0  0  0  0  0
  -35.1631    5.5578  -42.4253 C   0  0  0  0  0  0  0  0  0  0  0  0
  -36.6430    5.4576  -42.8054 C   0  0  0  0  0  0  0  0  0  0  0  0
  -36.9749    4.0081  -43.1668 C   0  0  0  0  0  0  0  0  0  0  0  0
  -36.1324    3.5770  -44.2897 N   0  0  0  0  0  0  0  0  0  0  0  0
  -36.5188    2.2380  -44.7540 C   0  0  0  0  0  0  0  0  0  0  0  0
  -35.7987    1.9260  -46.0673 C   0  0  0  0  0  0  0  0  0  0  0  0
  -36.1029    0.4864  -46.4864 C   0  0  0  0  0  0  0  0  0  0  0  0
  -35.3827    0.1745  -47.7998 C   0  0  0  0  0  0  0  0  0  0  0  0
  -35.8668    1.1354  -48.8876 C   0  0  0  0  0  0  0  0  0  0  0  0
  -35.5625    2.5751  -48.4685 C   0  0  0  0  0  0  0  0  0  0  0  0
  -36.2827    2.8870  -47.1550 C   0  0  0  0  0  0  0  0  0  0  0  0
  -34.7087    3.6196  -43.9322 C   0  0  0  0  0  0  0  0  0  0  0  0
  -34.3091    5.0575  -43.5936 C   0  0  0  0  0  0  0  0  0  0  0  0
  -35.2110    7.9694  -43.4567 X   0  0  0  0  0  0  0  0  0  0  0  0
  1  2  1  0  0  0  0
  1 15  1  0  0  0  0
  2  3  1  0  0  0  0
  2 14  1  0  0  0  0
  3  4  1  0  0  0  0
  4  5  1  0  0  0  0
  5  6  1  0  0  0  0
  5 13  1  0  0  0  0
  6  7  1  0  0  0  0
  7  8  1  0  0  0  0
  7 12  1  0  0  0  0
  8  9  1  0  0  0  0
  9 10  1  0  0  0  0
 10 11  1  0  0  0  0
 11 12  1  0  0  0  0
 13 14  1  0  0  0  0
M  END
> <Index>
3915

> <PropertyFieldDistance>
nan

$$$$
4557506
BBcorina  12272117083D 1   1.00000     0.00000 
CORINA 4.3.0 0026  30.10.2019
 13 14  0  0  0  0  0  0  0  0999 V2000
  -36.2497    2.2748  -44.7944 C   0  0  0  0  0  0  0  0  0  0  0  0
  -36.0819    3.6759  -44.3861 N   0  0  0  0  0  0  0  0  0  0  0  0
  -36.9237    3.9901  -43.2299 C   0  0  0  0  0  0  0  0  0  0  0  0
  -36.6851    5.4520  -42.8321 C   0  0  0  0  0  0  0  0  0  0  0  0
  -35.2620    5.5640  -42.2805 C   0  0  0  0  0  0  0  0  0  0  0  0
  -34.3011    4.8649  -43.2092 C   0  0  0  0  0  0  0  0  0  0  0  0
  -32.9483    5.1288  -43.0666 C   0  0  0  0  0  0  0  0  0  0  0  0
  -32.0209    4.5084  -43.8899 C   0  0  0  0  0  0  0  0  0  0  0  0
  -30.6557    4.7796  -43.7403 N   0  0  0  0  0  0  0  0  0  0  0  0
  -32.4520    3.6167  -44.8630 C   0  0  0  0  0  0  0  0  0  0  0  0
  -33.7978    3.3571  -45.0086 C   0  0  0  0  0  0  0  0  0  0  0  0
  -34.7331    3.9800  -44.1815 C   0  0  0  0  0  0  0  0  0  0  0  0
  -29.5151    4.0125  -44.7575 X   0  0  0  0  0  0  0  0  0  0  0  0
  1  2  1  0  0  0  0
  2  3  1  0  0  0  0
  2 12  1  0  0  0  0
  3  4  1  0  0  0  0
  4  5  1  0  0  0  0
  5  6  1  0  0  0  0
  6  7  2  0  0  0  0
  6 12  1  0  0  0  0
  7  8  1  0  0  0  0
  8  9  1  0  0  0  0
  8 10  2  0  0  0  0
  9 13  1  0  0  0  0
 10 11  1  0  0  0  0
 11 12  2  0  0  0  0
M  END
> <Index>
3930

> <PropertyFieldDistance>
nan

$$$$
8626198
BBcorina  12272117083D 1   1.00000     0.00000 
CORINA 4.3.0 0026  30.10.2019
 11 11  0  0  0  0  0  0  0  0999 V2000
  -31.8317    4.4765  -41.8056 F   0  0  0  0  0  0  0  0  0  0  0  0
  -31.8592    4.8769  -43.1459 C   0  0  0  0  0  0  0  0  0  0  0  0
  -31.8428    3.7469  -43.9705 F   0  0  0  0  0  0  0  0  0  0  0  0
  -33.0478    5.6303  -43.3937 O   0  0  0  0  0  0  0  0  0  0  0  0
  -34.2559    4.9088  -43.1443 C   0  0  0  0  0  0  0  0  0  0  0  0
  -35.3534    5.8832  -42.7079 C   0  0  0  0  0  0  0  0  0  0  0  0
  -36.6587    5.1099  -42.5007 C   0  0  0  0  0  0  0  0  0  0  0  0
  -37.0291    4.3869  -43.7977 C   0  0  0  0  0  0  0  0  0  0  0  0
  -35.9479    3.4664  -44.1723 N   0  0  0  0  0  0  0  0  0  0  0  0
  -34.6958    4.1916  -44.4226 C   0  0  0  0  0  0  0  0  0  0  0  0
  -36.3899    2.5210  -45.5270 X   0  0  0  0  0  0  0  0  0  0  0  0
  1  2  1  0  0  0  0
  2  3  1  0  0  0  0
  2  4  1  0  0  0  0
  4  5  1  0  0  0  0
  5  6  1  0  0  0  0
  5 10  1  0  0  0  0
  6  7  1  0  0  0  0
  7  8  1  0  0  0  0
  8  9  1  0  0  0  0
  9 10  1  0  0  0  0
  9 11  1  0  0  0  0
M  END
> <Index>
3932

> <PropertyFieldDistance>
nan

$$$$
7941848
BBcorina  12272117083D 1   1.00000     0.00000 
CORINA 4.3.0 0026  30.10.2019
 12 12  0  0  0  0  0  0  0  0999 V2000
  -35.2439    7.9008  -42.9910 C   0  0  0  0  0  0  0  0  0  0  0  0
  -34.9563    6.9434  -41.8328 C   0  0  0  0  0  0  0  0  0  0  0  0
  -35.2385    5.5066  -42.2766 C   0  0  0  0  0  0  0  0  0  0  0  0
  -36.6923    5.3915  -42.7433 C   0  0  0  0  0  0  0  0  0  0  0  0
  -36.9514    3.9683  -43.2428 C   0  0  0  0  0  0  0  0  0  0  0  0
  -36.0372    3.6630  -44.3508 N   0  0  0  0  0  0  0  0  0  0  0  0
  -36.3495    2.3571  -44.9464 C   0  0  0  0  0  0  0  0  0  0  0  0
  -34.6362    3.7210  -43.9147 C   0  0  0  0  0  0  0  0  0  0  0  0
  -34.3080    5.1368  -43.4351 C   0  0  0  0  0  0  0  0  0  0  0  0
  -35.8181    7.2817  -40.6923 N   0  0  0  0  0  0  0  0  0  0  0  0
  -35.5142    8.6259  -40.1835 C   0  0  0  0  0  0  0  0  0  0  0  0
  -35.6813    6.1118  -39.4527 X   0  0  0  0  0  0  0  0  0  0  0  0
  1  2  1  0  0  0  0
  2  3  1  0  0  0  0
  2 10  1  0  0  0  0
  3  4  1  0  0  0  0
  3  9  1  0  0  0  0
  4  5  1  0  0  0  0
  5  6  1  0  0  0  0
  6  7  1  0  0  0  0
  6  8  1  0  0  0  0
  8  9  1  0  0  0  0
 10 11  1  0  0  0  0
 10 12  1  0  0  0  0
M  END
> <Index>
3938

> <PropertyFieldDistance>
nan

$$$$
9746800
BBcorina  12272117083D 1   1.00000     0.00000 
CORINA 4.3.0 0026  30.10.2019
 13 14  0  0  0  0  0  0  0  0999 V2000
  -34.9726    6.8741  -41.8554 N   0  0  0  0  0  0  0  0  0  0  0  0
  -35.2426    5.4945  -42.2819 C   0  0  0  0  0  0  0  0  0  0  0  0
  -36.6962    5.3784  -42.7488 C   0  0  0  0  0  0  0  0  0  0  0  0
  -36.9543    3.9552  -43.2486 C   0  0  0  0  0  0  0  0  0  0  0  0
  -36.0398    3.6507  -44.3566 N   0  0  0  0  0  0  0  0  0  0  0  0
  -34.6389    3.7095  -43.9201 C   0  0  0  0  0  0  0  0  0  0  0  0
  -34.3118    5.1255  -43.4403 C   0  0  0  0  0  0  0  0  0  0  0  0
  -36.3336    2.4184  -44.9188 C   0  0  0  0  0  0  0  0  0  0  0  0
  -35.6955    1.8846  -45.9136 N   0  0  0  0  0  0  0  0  0  0  0  0
  -36.1118    0.6994  -46.3230 C   0  0  0  0  0  0  0  0  0  0  0  0
  -37.1488    0.2104  -45.6427 C   0  0  0  0  0  0  0  0  0  0  0  0
  -37.5900    1.3804  -44.4018 S   0  0  0  0  0  0  0  0  0  0  0  0
  -33.7813    6.9143  -40.6294 X   0  0  0  0  0  0  0  0  0  0  0  0
  1  2  1  0  0  0  0
  1 13  1  0  0  0  0
  2  3  1  0  0  0  0
  2  7  1  0  0  0  0
  3  4  1  0  0  0  0
  4  5  1  0  0  0  0
  5  6  1  0  0  0  0
  5  8  1  0  0  0  0
  6  7  1  0  0  0  0
  8  9  2  0  0  0  0
  8 12  1  0  0  0  0
  9 10  1  0  0  0  0
 10 11  2  0  0  0  0
 11 12  1  0  0  0  0
M  END
> <Index>
3977

> <PropertyFieldDistance>
nan

$$$$
1723688
BBcorina  12272117083D 1   1.00000     0.00000 
CORINA 4.3.0 0026  30.10.2019
 10 11  0  0  0  0  0  0  0  0999 V2000
  -34.0481    6.0847  -42.9540 N   0  0  0  0  0  0  0  0  0  0  0  0
  -34.8990    4.9072  -42.7365 C   0  0  0  0  0  0  0  0  0  0  0  0
  -36.3942    5.2986  -42.7725 C   0  0  0  0  0  0  0  0  0  0  0  0
  -37.0922    4.1514  -43.5263 C   0  0  0  0  0  0  0  0  0  0  0  0
  -36.0503    3.1581  -43.8657 N   0  0  0  0  0  0  0  0  0  0  0  0
  -34.7726    3.9135  -43.9184 C   0  0  0  0  0  0  0  0  0  0  0  0
  -36.3358    2.5156  -45.1555 C   0  0  0  0  0  0  0  0  0  0  0  0
  -37.5513    1.5893  -45.2297 C   0  0  0  0  0  0  0  0  0  0  0  0
  -36.1389    1.0012  -45.2492 C   0  0  0  0  0  0  0  0  0  0  0  0
  -33.6280    6.8200  -41.4685 X   0  0  0  0  0  0  0  0  0  0  0  0
  1  2  1  0  0  0  0
  1 10  1  0  0  0  0
  2  3  1  0  0  0  0
  2  6  1  0  0  0  0
  3  4  1  0  0  0  0
  4  5  1  0  0  0  0
  5  6  1  0  0  0  0
  5  7  1  0  0  0  0
  7  8  1  0  0  0  0
  7  9  1  0  0  0  0
  8  9  1  0  0  0  0
M  END
> <Index>
3980

> <PropertyFieldDistance>
nan

$$$$
2029274
BBcorina  12272117083D 1   1.00000     0.00000 
CORINA 4.3.0 0026  30.10.2019
  8  8  0  0  0  0  0  0  0  0999 V2000
  -35.8204    3.5482  -43.9062 N   0  0  0  0  0  0  0  0  0  0  0  0
  -37.0087    4.3988  -43.7631 C   0  0  0  0  0  0  0  0  0  0  0  0
  -37.2092    4.9831  -42.4471 C   0  0  0  0  0  0  0  0  0  0  0  0
  -36.0377    5.9462  -42.1136 C   0  0  0  0  0  0  0  0  0  0  0  0
  -34.5455    4.9999  -41.8033 S   0  0  0  0  0  0  0  0  0  0  0  0
  -33.7459    4.7305  -43.4206 C   0  0  0  0  0  0  0  0  0  0  0  0
  -34.8030    4.4031  -44.5007 C   0  0  0  0  0  0  0  0  0  0  0  0
  -36.1487    2.2001  -44.9058 X   0  0  0  0  0  0  0  0  0  0  0  0
  1  2  1  0  0  0  0
  1  7  1  0  0  0  0
  1  8  1  0  0  0  0
  2  3  1  0  0  0  0
  3  4  1  0  0  0  0
  4  5  1  0  0  0  0
  5  6  1  0  0  0  0
  6  7  1  0  0  0  0
M  END
> <Index>
3982

> <PropertyFieldDistance>
nan

$$$$
1722796
BBcorina  12272117083D 1   1.00000     0.00000 
CORINA 4.3.0 0026  30.10.2019
 12 12  0  0  0  0  0  0  0  0999 V2000
  -36.4315    5.5737  -46.6812 C   0  0  0  0  0  0  0  0  0  0  0  0
  -36.4378    3.8427  -46.1388 S   0  0  0  0  0  0  0  0  0  0  0  0
  -35.3798    3.1228  -46.7566 O   0  0  0  0  0  0  0  0  0  0  0  0
  -37.7628    3.3294  -46.1247 O   0  0  0  0  0  0  0  0  0  0  0  0
  -36.0083    3.9087  -44.5408 N   0  0  0  0  0  0  0  0  0  0  0  0
  -37.0319    4.0441  -43.4956 C   0  0  0  0  0  0  0  0  0  0  0  0
  -36.6802    5.2430  -42.6092 C   0  0  0  0  0  0  0  0  0  0  0  0
  -35.2538    5.0787  -42.0788 C   0  0  0  0  0  0  0  0  0  0  0  0
  -34.2705    5.0354  -43.2507 C   0  0  0  0  0  0  0  0  0  0  0  0
  -34.5964    3.8325  -44.1414 C   0  0  0  0  0  0  0  0  0  0  0  0
  -32.9002    4.9078  -42.7366 N   0  0  0  0  0  0  0  0  0  0  0  0
  -32.1976    6.4449  -42.4765 X   0  0  0  0  0  0  0  0  0  0  0  0
  1  2  1  0  0  0  0
  2  3  2  0  0  0  0
  2  4  2  0  0  0  0
  2  5  1  0  0  0  0
  5  6  1  0  0  0  0
  5 10  1  0  0  0  0
  6  7  1  0  0  0  0
  7  8  1  0  0  0  0
  8  9  1  0  0  0  0
  9 10  1  0  0  0  0
  9 11  1  0  0  0  0
 11 12  1  0  0  0  0
M  END
> <Index>
3983

> <PropertyFieldDistance>
nan

$$$$
2263150
BBcorina  12272117083D 1   1.00000     0.00000 
CORINA 4.3.0 0026  30.10.2019
 11 11  0  0  0  0  0  0  0  0999 V2000
  -36.0964    1.4748  -44.9695 C   0  0  0  0  0  0  0  0  0  0  0  0
  -36.3825    2.8483  -45.5797 C   0  0  0  0  0  0  0  0  0  0  0  0
  -36.0508    3.8959  -44.6048 N   0  0  0  0  0  0  0  0  0  0  0  0
  -36.9469    3.8363  -43.4430 C   0  0  0  0  0  0  0  0  0  0  0  0
  -36.6688    5.0259  -42.5213 C   0  0  0  0  0  0  0  0  0  0  0  0
  -35.2078    4.9812  -42.0651 C   0  0  0  0  0  0  0  0  0  0  0  0
  -34.2966    4.9956  -43.2957 C   0  0  0  0  0  0  0  0  0  0  0  0
  -32.8363    4.8909  -42.8512 C   0  0  0  0  0  0  0  0  0  0  0  0
  -32.4696    6.0910  -42.0875 N   0  0  0  0  0  0  0  0  0  0  0  0
  -34.6435    3.8070  -44.1951 C   0  0  0  0  0  0  0  0  0  0  0  0
  -30.8415    6.0146  -41.5706 X   0  0  0  0  0  0  0  0  0  0  0  0
  1  2  1  0  0  0  0
  2  3  1  0  0  0  0
  3  4  1  0  0  0  0
  3 10  1  0  0  0  0
  4  5  1  0  0  0  0
  5  6  1  0  0  0  0
  6  7  1  0  0  0  0
  7  8  1  0  0  0  0
  7 10  1  0  0  0  0
  8  9  1  0  0  0  0
  9 11  1  0  0  0  0
M  END
> <Index>
4010

> <PropertyFieldDistance>
nan

$$$$
2307952
BBcorina  12272117083D 1   1.00000     0.00000 
CORINA 4.3.0 0026  30.10.2019
 15 16  0  0  0  0  0  0  0  0999 V2000
  -33.4284    7.0913  -41.6363 N   0  0  0  0  0  0  0  0  0  0  0  0
  -34.8141    7.0121  -42.1176 C   0  0  0  0  0  0  0  0  0  0  0  0
  -35.1650    5.5548  -42.4241 C   0  0  0  0  0  0  0  0  0  0  0  0
  -36.6444    5.4542  -42.8062 C   0  0  0  0  0  0  0  0  0  0  0  0
  -36.9747    4.0050  -43.1704 C   0  0  0  0  0  0  0  0  0  0  0  0
  -36.1305    3.5765  -44.2930 N   0  0  0  0  0  0  0  0  0  0  0  0
  -36.5153    2.2379  -44.7601 C   0  0  0  0  0  0  0  0  0  0  0  0
  -35.8041    1.9335  -46.0534 C   0  0  0  0  0  0  0  0  0  0  0  0
  -34.6115    1.3447  -46.1550 C   0  0  0  0  0  0  0  0  0  0  0  0
  -34.1540    1.1736  -47.4501 C   0  0  0  0  0  0  0  0  0  0  0  0
  -34.9798    1.6136  -48.4008 C   0  0  0  0  0  0  0  0  0  0  0  0
  -36.4194    2.3006  -47.6596 S   0  0  0  0  0  0  0  0  0  0  0  0
  -34.7073    3.6195  -43.9337 C   0  0  0  0  0  0  0  0  0  0  0  0
  -34.3093    5.0572  -43.5922 C   0  0  0  0  0  0  0  0  0  0  0  0
  -32.9943    8.7067  -41.2812 X   0  0  0  0  0  0  0  0  0  0  0  0
  1  2  1  0  0  0  0
  1 15  1  0  0  0  0
  2  3  1  0  0  0  0
  3  4  1  0  0  0  0
  3 14  1  0  0  0  0
  4  5  1  0  0  0  0
  5  6  1  0  0  0  0
  6  7  1  0  0  0  0
  6 13  1  0  0  0  0
  7  8  1  0  0  0  0
  8  9  2  0  0  0  0
  8 12  1  0  0  0  0
  9 10  1  0  0  0  0
 10 11  2  0  0  0  0
 11 12  1  0  0  0  0
 13 14  1  0  0  0  0
M  END
> <Index>
4012

> <PropertyFieldDistance>
nan

$$$$
7831324
BBcorina  12272117083D 1   1.00000     0.00000 
CORINA 4.3.0 0026  30.10.2019
 13 13  0  0  0  0  0  0  0  0999 V2000
  -36.8552    0.2749  -46.5346 C   0  0  0  0  0  0  0  0  0  0  0  0
  -36.6341    1.7479  -46.1852 C   0  0  0  0  0  0  0  0  0  0  0  0
  -36.1582    1.8906  -44.4406 S   0  0  0  0  0  0  0  0  0  0  0  0
  -37.2484    1.5464  -43.5965 O   0  0  0  0  0  0  0  0  0  0  0  0
  -34.8658    1.3390  -44.2295 O   0  0  0  0  0  0  0  0  0  0  0  0
  -35.9528    3.5161  -44.2000 N   0  0  0  0  0  0  0  0  0  0  0  0
  -37.0775    4.3569  -43.7677 C   0  0  0  0  0  0  0  0  0  0  0  0
  -36.6621    5.1282  -42.5111 C   0  0  0  0  0  0  0  0  0  0  0  0
  -35.3722    5.9013  -42.7950 C   0  0  0  0  0  0  0  0  0  0  0  0
  -34.2541    4.9185  -43.1502 C   0  0  0  0  0  0  0  0  0  0  0  0
  -34.6409    4.1438  -44.4088 C   0  0  0  0  0  0  0  0  0  0  0  0
  -34.9887    6.6683  -41.6023 N   0  0  0  0  0  0  0  0  0  0  0  0
  -34.6193    5.6272  -40.2969 X   0  0  0  0  0  0  0  0  0  0  0  0
  1  2  1  0  0  0  0
  2  3  1  0  0  0  0
  3  4  2  0  0  0  0
  3  5  2  0  0  0  0
  3  6  1  0  0  0  0
  6  7  1  0  0  0  0
  6 11  1  0  0  0  0
  7  8  1  0  0  0  0
  8  9  1  0  0  0  0
  9 10  1  0  0  0  0
  9 12  1  0  0  0  0
 10 11  1  0  0  0  0
 12 13  1  0  0  0  0
M  END
> <Index>
4048

> <PropertyFieldDistance>
nan

$$$$
2008836
BBcorina  12272117083D 1   1.00000     0.00000 
CORINA 4.3.0 0026  30.10.2019
 13 13  0  0  0  0  0  0  0  0999 V2000
  -35.0099    7.6911  -41.9677 C   0  0  0  0  0  0  0  0  0  0  0  0
  -34.9404    6.3784  -41.3210 N   0  0  0  0  0  0  0  0  0  0  0  0
  -35.2462    5.1675  -42.0868 C   0  0  0  0  0  0  0  0  0  0  0  0
  -36.6793    5.2476  -42.6203 C   0  0  0  0  0  0  0  0  0  0  0  0
  -36.9723    4.0086  -43.4694 C   0  0  0  0  0  0  0  0  0  0  0  0
  -36.0191    3.9414  -44.5845 N   0  0  0  0  0  0  0  0  0  0  0  0
  -34.6396    3.8164  -44.0971 C   0  0  0  0  0  0  0  0  0  0  0  0
  -34.2769    5.0496  -43.2664 C   0  0  0  0  0  0  0  0  0  0  0  0
  -34.5162    6.2633  -39.7244 S   0  0  0  0  0  0  0  0  0  0  0  0
  -34.8935    7.5162  -39.1704 O   0  0  0  0  0  0  0  0  0  0  0  0
  -35.1240    5.0557  -39.2866 O   0  0  0  0  0  0  0  0  0  0  0  0
  -32.7102    6.0953  -39.7470 C   0  0  0  0  0  0  0  0  0  0  0  0
  -36.4111    2.6624  -45.6495 X   0  0  0  0  0  0  0  0  0  0  0  0
  1  2  1  0  0  0  0
  2  3  1  0  0  0  0
  2  9  1  0  0  0  0
  3  4  1  0  0  0  0
  3  8  1  0  0  0  0
  4  5  1  0  0  0  0
  5  6  1  0  0  0  0
  6  7  1  0  0  0  0
  6 13  1  0  0  0  0
  7  8  1  0  0  0  0
  9 10  2  0  0  0  0
  9 11  2  0  0  0  0
  9 12  1  0  0  0  0
M  END
> <Index>
4081

> <PropertyFieldDistance>
nan

$$$$
2008848
BBcorina  12272117083D 1   1.00000     0.00000 
CORINA 4.3.0 0026  30.10.2019
 12 12  0  0  0  0  0  0  0  0999 V2000
  -35.0098    7.6911  -41.9678 C   0  0  0  0  0  0  0  0  0  0  0  0
  -34.9404    6.3784  -41.3211 N   0  0  0  0  0  0  0  0  0  0  0  0
  -35.2462    5.1675  -42.0869 C   0  0  0  0  0  0  0  0  0  0  0  0
  -36.6792    5.2476  -42.6203 C   0  0  0  0  0  0  0  0  0  0  0  0
  -36.9723    4.0086  -43.4695 C   0  0  0  0  0  0  0  0  0  0  0  0
  -36.0191    3.9414  -44.5845 N   0  0  0  0  0  0  0  0  0  0  0  0
  -34.6396    3.8164  -44.0970 C   0  0  0  0  0  0  0  0  0  0  0  0
  -34.2770    5.0496  -43.2664 C   0  0  0  0  0  0  0  0  0  0  0  0
  -34.5952    6.2848  -40.0217 C   0  0  0  0  0  0  0  0  0  0  0  0
  -34.6202    5.2082  -39.4637 O   0  0  0  0  0  0  0  0  0  0  0  0
  -34.1782    7.5177  -39.2621 C   0  0  0  0  0  0  0  0  0  0  0  0
  -36.4111    2.6623  -45.6495 X   0  0  0  0  0  0  0  0  0  0  0  0
  1  2  1  0  0  0  0
  2  3  1  0  0  0  0
  2  9  1  0  0  0  0
  3  4  1  0  0  0  0
  3  8  1  0  0  0  0
  4  5  1  0  0  0  0
  5  6  1  0  0  0  0
  6  7  1  0  0  0  0
  6 12  1  0  0  0  0
  7  8  1  0  0  0  0
  9 10  2  0  0  0  0
  9 11  1  0  0  0  0
M  END
> <Index>
4092

> <PropertyFieldDistance>
nan

$$$$
2334290
BBcorina  12272117083D 1   1.00000     0.00000 
CORINA 4.3.0 0026  30.10.2019
 12 13  0  0  0  0  0  0  0  0999 V2000
  -35.8964    2.4264  -47.0817 N   0  0  0  0  0  0  0  0  0  0  0  0
  -36.4999    1.5674  -48.1227 C   0  0  0  0  0  0  0  0  0  0  0  0
  -36.1619    0.1201  -47.6862 C   0  0  0  0  0  0  0  0  0  0  0  0
  -36.2902    0.2200  -46.1434 C   0  0  0  0  0  0  0  0  0  0  0  0
  -35.7643    1.6391  -45.8420 C   0  0  0  0  0  0  0  0  0  0  0  0
  -36.5974    2.2775  -44.7288 C   0  0  0  0  0  0  0  0  0  0  0  0
  -36.1802    3.6739  -44.5443 N   0  0  0  0  0  0  0  0  0  0  0  0
  -37.1113    4.3902  -43.6532 C   0  0  0  0  0  0  0  0  0  0  0  0
  -36.2803    4.9534  -42.4812 C   0  0  0  0  0  0  0  0  0  0  0  0
  -34.8448    5.0109  -43.0665 C   0  0  0  0  0  0  0  0  0  0  0  0
  -34.8223    3.7491  -43.9647 C   0  0  0  0  0  0  0  0  0  0  0  0
  -36.8410    3.8276  -46.8200 X   0  0  0  0  0  0  0  0  0  0  0  0
  1  2  1  0  0  0  0
  1  5  1  0  0  0  0
  1 12  1  0  0  0  0
  2  3  1  0  0  0  0
  3  4  1  0  0  0  0
  4  5  1  0  0  0  0
  5  6  1  0  0  0  0
  6  7  1  0  0  0  0
  7  8  1  0  0  0  0
  7 11  1  0  0  0  0
  8  9  1  0  0  0  0
  9 10  1  0  0  0  0
 10 11  1  0  0  0  0
M  END
> <Index>
4103

> <PropertyFieldDistance>
nan

$$$$
2531236
BBcorina  12272117083D 1   1.00000     0.00000 
CORINA 4.3.0 0026  30.10.2019
 11 11  0  0  0  0  0  0  0  0999 V2000
  -36.3354    2.3075  -44.8787 C   0  0  0  0  0  0  0  0  0  0  0  0
  -35.9453    3.3416  -43.9110 N   0  0  0  0  0  0  0  0  0  0  0  0
  -37.0432    4.2897  -43.6828 C   0  0  0  0  0  0  0  0  0  0  0  0
  -36.6554    5.2625  -42.5667 C   0  0  0  0  0  0  0  0  0  0  0  0
  -35.3834    6.0133  -42.9700 C   0  0  0  0  0  0  0  0  0  0  0  0
  -34.9562    6.9432  -41.8327 C   0  0  0  0  0  0  0  0  0  0  0  0
  -33.7595    7.7834  -42.2830 C   0  0  0  0  0  0  0  0  0  0  0  0
  -33.3494    8.6763  -41.1910 N   0  0  0  0  0  0  0  0  0  0  0  0
  -34.2691    5.0007  -43.2489 C   0  0  0  0  0  0  0  0  0  0  0  0
  -34.7262    4.0356  -44.3451 C   0  0  0  0  0  0  0  0  0  0  0  0
  -32.0114    9.6355  -41.6534 X   0  0  0  0  0  0  0  0  0  0  0  0
  1  2  1  0  0  0  0
  2  3  1  0  0  0  0
  2 10  1  0  0  0  0
  3  4  1  0  0  0  0
  4  5  1  0  0  0  0
  5  6  1  0  0  0  0
  5  9  1  0  0  0  0
  6  7  1  0  0  0  0
  7  8  1  0  0  0  0
  8 11  1  0  0  0  0
  9 10  1  0  0  0  0
M  END
> <Index>
4104

> <PropertyFieldDistance>
nan

$$$$
2308218
BBcorina  12272117083D 1   1.00000     0.00000 
CORINA 4.3.0 0026  30.10.2019
 12 12  0  0  0  0  0  0  0  0999 V2000
  -38.1038    2.2306  -45.3730 F   0  0  0  0  0  0  0  0  0  0  0  0
  -36.8490    1.6584  -45.6074 C   0  0  0  0  0  0  0  0  0  0  0  0
  -36.7874    1.1932  -46.9253 F   0  0  0  0  0  0  0  0  0  0  0  0
  -36.6517    0.5899  -44.7261 F   0  0  0  0  0  0  0  0  0  0  0  0
  -35.7596    2.7097  -45.3863 C   0  0  0  0  0  0  0  0  0  0  0  0
  -35.8243    3.1982  -44.0024 N   0  0  0  0  0  0  0  0  0  0  0  0
  -37.0460    4.0006  -43.7803 C   0  0  0  0  0  0  0  0  0  0  0  0
  -36.6262    5.0856  -42.7574 C   0  0  0  0  0  0  0  0  0  0  0  0
  -35.1786    5.4043  -43.2151 C   0  0  0  0  0  0  0  0  0  0  0  0
  -34.6508    4.0309  -43.6806 C   0  0  0  0  0  0  0  0  0  0  0  0
  -34.3795    5.9146  -42.0929 N   0  0  0  0  0  0  0  0  0  0  0  0
  -34.3452    7.6242  -42.0926 X   0  0  0  0  0  0  0  0  0  0  0  0
  1  2  1  0  0  0  0
  2  3  1  0  0  0  0
  2  4  1  0  0  0  0
  2  5  1  0  0  0  0
  5  6  1  0  0  0  0
  6  7  1  0  0  0  0
  6 10  1  0  0  0  0
  7  8  1  0  0  0  0
  8  9  1  0  0  0  0
  9 10  1  0  0  0  0
  9 11  1  0  0  0  0
 11 12  1  0  0  0  0
M  END
> <Index>
4105

> <PropertyFieldDistance>
nan

$$$$
5349556
BBcorina  12272117083D 1   1.00000     0.00000 
CORINA 4.3.0 0026  30.10.2019
 15 16  0  0  0  0  0  0  0  0999 V2000
  -35.1500    0.2412  -47.5852 F   0  0  0  0  0  0  0  0  0  0  0  0
  -35.8802    0.7051  -46.5474 C   0  0  0  0  0  0  0  0  0  0  0  0
  -36.9290   -0.0487  -46.0473 C   0  0  0  0  0  0  0  0  0  0  0  0
  -37.6751    0.4213  -44.9822 C   0  0  0  0  0  0  0  0  0  0  0  0
  -37.3836    1.6485  -44.4203 C   0  0  0  0  0  0  0  0  0  0  0  0
  -36.3356    2.4105  -44.9223 C   0  0  0  0  0  0  0  0  0  0  0  0
  -35.5837    1.9354  -45.9885 C   0  0  0  0  0  0  0  0  0  0  0  0
  -36.0395    3.6523  -44.3558 N   0  0  0  0  0  0  0  0  0  0  0  0
  -36.9539    3.9568  -43.2479 C   0  0  0  0  0  0  0  0  0  0  0  0
  -36.6958    5.3801  -42.7481 C   0  0  0  0  0  0  0  0  0  0  0  0
  -35.2421    5.4960  -42.2812 C   0  0  0  0  0  0  0  0  0  0  0  0
  -34.3113    5.1269  -43.4396 C   0  0  0  0  0  0  0  0  0  0  0  0
  -34.6386    3.7110  -43.9194 C   0  0  0  0  0  0  0  0  0  0  0  0
  -34.9720    6.8755  -41.8548 N   0  0  0  0  0  0  0  0  0  0  0  0
  -35.3280    7.9847  -43.1066 X   0  0  0  0  0  0  0  0  0  0  0  0
  1  2  1  0  0  0  0
  2  3  2  0  0  0  0
  2  7  1  0  0  0  0
  3  4  1  0  0  0  0
  4  5  2  0  0  0  0
  5  6  1  0  0  0  0
  6  7  2  0  0  0  0
  6  8  1  0  0  0  0
  8  9  1  0  0  0  0
  8 13  1  0  0  0  0
  9 10  1  0  0  0  0
 10 11  1  0  0  0  0
 11 12  1  0  0  0  0
 11 14  1  0  0  0  0
 12 13  1  0  0  0  0
 14 15  1  0  0  0  0
M  END
> <Index>
4111

> <PropertyFieldDistance>
nan

$$$$
2335326
BBcorina  12272117083D 1   1.00000     0.00000 
CORINA 4.3.0 0026  30.10.2019
 16 17  0  0  0  0  0  0  0  0999 V2000
  -37.1150    3.2778  -48.4037 C   0  0  0  0  0  0  0  0  0  0  0  0
  -36.7465    3.4438  -47.0331 O   0  0  0  0  0  0  0  0  0  0  0  0
  -36.6890    2.3205  -46.2686 C   0  0  0  0  0  0  0  0  0  0  0  0
  -36.9816    1.0867  -46.8249 C   0  0  0  0  0  0  0  0  0  0  0  0
  -36.9231   -0.0550  -46.0461 C   0  0  0  0  0  0  0  0  0  0  0  0
  -36.5729    0.0313  -44.7118 C   0  0  0  0  0  0  0  0  0  0  0  0
  -36.2797    1.2594  -44.1486 C   0  0  0  0  0  0  0  0  0  0  0  0
  -36.3362    2.4083  -44.9233 C   0  0  0  0  0  0  0  0  0  0  0  0
  -36.0394    3.6527  -44.3556 N   0  0  0  0  0  0  0  0  0  0  0  0
  -36.9539    3.9574  -43.2477 C   0  0  0  0  0  0  0  0  0  0  0  0
  -36.6956    5.3805  -42.7478 C   0  0  0  0  0  0  0  0  0  0  0  0
  -35.2419    5.4964  -42.2810 C   0  0  0  0  0  0  0  0  0  0  0  0
  -34.3111    5.1273  -43.4395 C   0  0  0  0  0  0  0  0  0  0  0  0
  -34.6385    3.7114  -43.9192 C   0  0  0  0  0  0  0  0  0  0  0  0
  -34.9717    6.8760  -41.8547 N   0  0  0  0  0  0  0  0  0  0  0  0
  -33.7805    6.9163  -40.6286 X   0  0  0  0  0  0  0  0  0  0  0  0
  1  2  1  0  0  0  0
  2  3  1  0  0  0  0
  3  4  2  0  0  0  0
  3  8  1  0  0  0  0
  4  5  1  0  0  0  0
  5  6  2  0  0  0  0
  6  7  1  0  0  0  0
  7  8  2  0  0  0  0
  8  9  1  0  0  0  0
  9 10  1  0  0  0  0
  9 14  1  0  0  0  0
 10 11  1  0  0  0  0
 11 12  1  0  0  0  0
 12 13  1  0  0  0  0
 12 15  1  0  0  0  0
 13 14  1  0  0  0  0
 15 16  1  0  0  0  0
M  END
> <Index>
4112

> <PropertyFieldDistance>
nan

$$$$
2162380
BBcorina  12272117083D 1   1.00000     0.00000 
CORINA 4.3.0 0026  30.10.2019
 16 17  0  0  0  0  0  0  0  0999 V2000
  -38.0808   -1.8245  -46.9443 C   0  0  0  0  0  0  0  0  0  0  0  0
  -37.4559   -0.6373  -47.6797 C   0  0  0  0  0  0  0  0  0  0  0  0
  -37.0556    0.4179  -46.6811 C   0  0  0  0  0  0  0  0  0  0  0  0
  -35.7908    0.3947  -46.1225 C   0  0  0  0  0  0  0  0  0  0  0  0
  -35.4205    1.3605  -45.2074 C   0  0  0  0  0  0  0  0  0  0  0  0
  -36.3202    2.3560  -44.8483 C   0  0  0  0  0  0  0  0  0  0  0  0
  -37.5917    2.3735  -45.4075 C   0  0  0  0  0  0  0  0  0  0  0  0
  -37.9537    1.4077  -46.3259 C   0  0  0  0  0  0  0  0  0  0  0  0
  -35.9491    3.3341  -43.9227 N   0  0  0  0  0  0  0  0  0  0  0  0
  -37.0463    4.2822  -43.6905 C   0  0  0  0  0  0  0  0  0  0  0  0
  -36.6584    5.2486  -42.5691 C   0  0  0  0  0  0  0  0  0  0  0  0
  -35.3852    6.0002  -42.9673 C   0  0  0  0  0  0  0  0  0  0  0  0
  -34.2718    4.9878  -43.2503 C   0  0  0  0  0  0  0  0  0  0  0  0
  -34.7289    4.0290  -44.3521 C   0  0  0  0  0  0  0  0  0  0  0  0
  -34.9761    6.8880  -41.8708 N   0  0  0  0  0  0  0  0  0  0  0  0
  -34.5579    5.9888  -40.4777 X   0  0  0  0  0  0  0  0  0  0  0  0
  1  2  1  0  0  0  0
  2  3  1  0  0  0  0
  3  4  2  0  0  0  0
  3  8  1  0  0  0  0
  4  5  1  0  0  0  0
  5  6  2  0  0  0  0
  6  7  1  0  0  0  0
  6  9  1  0  0  0  0
  7  8  2  0  0  0  0
  9 10  1  0  0  0  0
  9 14  1  0  0  0  0
 10 11  1  0  0  0  0
 11 12  1  0  0  0  0
 12 13  1  0  0  0  0
 12 15  1  0  0  0  0
 13 14  1  0  0  0  0
 15 16  1  0  0  0  0
M  END
> <Index>
4113

> <PropertyFieldDistance>
nan

$$$$
2206498
BBcorina  12272117083D 1   1.00000     0.00000 
CORINA 4.3.0 0026  30.10.2019
 16 17  0  0  0  0  0  0  0  0999 V2000
  -39.2400   -1.1247  -46.3246 C   0  0  0  0  0  0  0  0  0  0  0  0
  -38.9237   -0.1446  -45.3340 O   0  0  0  0  0  0  0  0  0  0  0  0
  -37.8166    0.6139  -45.5479 C   0  0  0  0  0  0  0  0  0  0  0  0
  -37.0503    0.4178  -46.6882 C   0  0  0  0  0  0  0  0  0  0  0  0
  -35.9237    1.1880  -46.9071 C   0  0  0  0  0  0  0  0  0  0  0  0
  -35.5599    2.1590  -45.9949 C   0  0  0  0  0  0  0  0  0  0  0  0
  -36.3201    2.3561  -44.8483 C   0  0  0  0  0  0  0  0  0  0  0  0
  -37.4516    1.5835  -44.6270 C   0  0  0  0  0  0  0  0  0  0  0  0
  -35.9490    3.3341  -43.9227 N   0  0  0  0  0  0  0  0  0  0  0  0
  -37.0471    4.2823  -43.6904 C   0  0  0  0  0  0  0  0  0  0  0  0
  -36.6583    5.2486  -42.5692 C   0  0  0  0  0  0  0  0  0  0  0  0
  -35.3850    6.0001  -42.9673 C   0  0  0  0  0  0  0  0  0  0  0  0
  -34.2716    4.9877  -43.2503 C   0  0  0  0  0  0  0  0  0  0  0  0
  -34.7286    4.0289  -44.3521 C   0  0  0  0  0  0  0  0  0  0  0  0
  -34.9750    6.8868  -41.8702 N   0  0  0  0  0  0  0  0  0  0  0  0
  -34.5565    5.9861  -40.4781 X   0  0  0  0  0  0  0  0  0  0  0  0
  1  2  1  0  0  0  0
  2  3  1  0  0  0  0
  3  4  2  0  0  0  0
  3  8  1  0  0  0  0
  4  5  1  0  0  0  0
  5  6  2  0  0  0  0
  6  7  1  0  0  0  0
  7  8  2  0  0  0  0
  7  9  1  0  0  0  0
  9 10  1  0  0  0  0
  9 14  1  0  0  0  0
 10 11  1  0  0  0  0
 11 12  1  0  0  0  0
 12 13  1  0  0  0  0
 12 15  1  0  0  0  0
 13 14  1  0  0  0  0
 15 16  1  0  0  0  0
M  END
> <Index>
4114

> <PropertyFieldDistance>
nan

$$$$
2264084
BBcorina  12272117083D 1   1.00000     0.00000 
CORINA 4.3.0 0026  30.10.2019
 16 17  0  0  0  0  0  0  0  0999 V2000
  -34.9723    6.8749  -41.8551 N   0  0  0  0  0  0  0  0  0  0  0  0
  -35.2423    5.4953  -42.2815 C   0  0  0  0  0  0  0  0  0  0  0  0
  -36.6960    5.3793  -42.7484 C   0  0  0  0  0  0  0  0  0  0  0  0
  -36.9541    3.9561  -43.2482 C   0  0  0  0  0  0  0  0  0  0  0  0
  -36.0396    3.6517  -44.3561 N   0  0  0  0  0  0  0  0  0  0  0  0
  -34.6388    3.7103  -43.9197 C   0  0  0  0  0  0  0  0  0  0  0  0
  -34.3115    5.1263  -43.4399 C   0  0  0  0  0  0  0  0  0  0  0  0
  -36.3347    2.4140  -44.9207 C   0  0  0  0  0  0  0  0  0  0  0  0
  -35.5791    1.9406  -45.9893 C   0  0  0  0  0  0  0  0  0  0  0  0
  -35.8677    0.7167  -46.5494 C   0  0  0  0  0  0  0  0  0  0  0  0
  -36.9214   -0.0506  -46.0440 C   0  0  0  0  0  0  0  0  0  0  0  0
  -37.2247   -1.3240  -46.6245 C   0  0  0  0  0  0  0  0  0  0  0  0
  -37.4653   -2.3342  -47.0851 N   0  0  0  0  0  0  0  0  0  0  0  0
  -37.6786    0.4283  -44.9708 C   0  0  0  0  0  0  0  0  0  0  0  0
  -37.3810    1.6505  -44.4117 C   0  0  0  0  0  0  0  0  0  0  0  0
  -35.3282    7.9840  -43.1070 X   0  0  0  0  0  0  0  0  0  0  0  0
  1  2  1  0  0  0  0
  1 16  1  0  0  0  0
  2  3  1  0  0  0  0
  2  7  1  0  0  0  0
  3  4  1  0  0  0  0
  4  5  1  0  0  0  0
  5  6  1  0  0  0  0
  5  8  1  0  0  0  0
  6  7  1  0  0  0  0
  8  9  2  0  0  0  0
  8 15  1  0  0  0  0
  9 10  1  0  0  0  0
 10 11  2  0  0  0  0
 11 12  1  0  0  0  0
 11 14  1  0  0  0  0
 12 13  3  0  0  0  0
 14 15  2  0  0  0  0
M  END
> <Index>
4130

> <PropertyFieldDistance>
nan

$$$$
2068198
BBcorina  12272117083D 1   1.00000     0.00000 
CORINA 4.3.0 0026  30.10.2019
 16 17  0  0  0  0  0  0  0  0999 V2000
  -36.4275    2.6267  -45.2574 C   0  0  0  0  0  0  0  0  0  0  0  0
  -35.9857    3.2990  -44.0283 N   0  0  0  0  0  0  0  0  0  0  0  0
  -37.0072    4.2391  -43.5458 C   0  0  0  0  0  0  0  0  0  0  0  0
  -36.5440    4.8579  -42.2249 C   0  0  0  0  0  0  0  0  0  0  0  0
  -35.2592    5.5410  -42.4309 N   0  0  0  0  0  0  0  0  0  0  0  0
  -34.2377    4.6009  -42.9133 C   0  0  0  0  0  0  0  0  0  0  0  0
  -34.7010    3.9821  -44.2342 C   0  0  0  0  0  0  0  0  0  0  0  0
  -34.8412    6.1771  -41.2679 C   0  0  0  0  0  0  0  0  0  0  0  0
  -35.0594    5.6066  -40.0932 N   0  0  0  0  0  0  0  0  0  0  0  0
  -34.6837    6.1795  -38.9653 C   0  0  0  0  0  0  0  0  0  0  0  0
  -34.0401    7.4005  -38.9716 C   0  0  0  0  0  0  0  0  0  0  0  0
  -33.7872    8.0300  -40.1834 C   0  0  0  0  0  0  0  0  0  0  0  0
  -34.1926    7.4054  -41.3489 C   0  0  0  0  0  0  0  0  0  0  0  0
  -33.9410    8.0494  -42.6878 C   0  0  0  0  0  0  0  0  0  0  0  0
  -35.1835    8.6600  -43.1788 N   0  0  0  0  0  0  0  0  0  0  0  0
  -34.9417    9.4037  -44.6996 X   0  0  0  0  0  0  0  0  0  0  0  0
  1  2  1  0  0  0  0
  2  3  1  0  0  0  0
  2  7  1  0  0  0  0
  3  4  1  0  0  0  0
  4  5  1  0  0  0  0
  5  6  1  0  0  0  0
  5  8  1  0  0  0  0
  6  7  1  0  0  0  0
  8  9  2  0  0  0  0
  8 13  1  0  0  0  0
  9 10  1  0  0  0  0
 10 11  2  0  0  0  0
 11 12  1  0  0  0  0
 12 13  2  0  0  0  0
 13 14  1  0  0  0  0
 14 15  1  0  0  0  0
 15 16  1  0  0  0  0
M  END
> <Index>
4136

> <PropertyFieldDistance>
nan

$$$$
2161972
BBcorina  12272117083D 1   1.00000     0.00000 
CORINA 4.3.0 0026  30.10.2019
 12 12  0  0  0  0  0  0  0  0999 V2000
  -36.2982    1.4822  -44.9178 C   0  0  0  0  0  0  0  0  0  0  0  0
  -36.2557    2.8438  -45.6144 C   0  0  0  0  0  0  0  0  0  0  0  0
  -37.6014    3.1128  -46.2908 C   0  0  0  0  0  0  0  0  0  0  0  0
  -37.6040    4.4696  -46.8539 N   0  0  0  0  0  0  0  0  0  0  0  0
  -35.9880    3.8934  -44.6220 N   0  0  0  0  0  0  0  0  0  0  0  0
  -36.9241    3.8023  -43.4942 C   0  0  0  0  0  0  0  0  0  0  0  0
  -36.7118    4.9925  -42.5560 C   0  0  0  0  0  0  0  0  0  0  0  0
  -35.2677    4.9838  -42.0471 C   0  0  0  0  0  0  0  0  0  0  0  0
  -35.0324    6.2046  -41.1553 C   0  0  0  0  0  0  0  0  0  0  0  0
  -34.3129    5.0305  -43.2431 C   0  0  0  0  0  0  0  0  0  0  0  0
  -34.5948    3.8391  -44.1615 C   0  0  0  0  0  0  0  0  0  0  0  0
  -39.0933    4.8119  -47.6211 X   0  0  0  0  0  0  0  0  0  0  0  0
  1  2  1  0  0  0  0
  2  3  1  0  0  0  0
  2  5  1  0  0  0  0
  3  4  1  0  0  0  0
  4 12  1  0  0  0  0
  5  6  1  0  0  0  0
  5 11  1  0  0  0  0
  6  7  1  0  0  0  0
  7  8  1  0  0  0  0
  8  9  1  0  0  0  0
  8 10  1  0  0  0  0
 10 11  1  0  0  0  0
M  END
> <Index>
4143

> <PropertyFieldDistance>
nan

$$$$
3203472
BBcorina  12272117083D 1   1.00000     0.00000 
CORINA 4.3.0 0026  30.10.2019
 12 12  0  0  0  0  0  0  0  0999 V2000
  -33.3952    0.9717  -46.1128 C   0  0  0  0  0  0  0  0  0  0  0  0
  -34.3873    1.5219  -45.2439 O   0  0  0  0  0  0  0  0  0  0  0  0
  -35.6678    1.6888  -45.8558 C   0  0  0  0  0  0  0  0  0  0  0  0
  -36.6456    2.2813  -44.8391 C   0  0  0  0  0  0  0  0  0  0  0  0
  -36.2375    3.6535  -44.5093 N   0  0  0  0  0  0  0  0  0  0  0  0
  -37.1108    4.2295  -43.4639 C   0  0  0  0  0  0  0  0  0  0  0  0
  -36.2317    5.1508  -42.5982 C   0  0  0  0  0  0  0  0  0  0  0  0
  -34.8115    5.0341  -43.1978 C   0  0  0  0  0  0  0  0  0  0  0  0
  -33.7568    5.0043  -42.0898 C   0  0  0  0  0  0  0  0  0  0  0  0
  -33.6937    6.3195  -41.4383 N   0  0  0  0  0  0  0  0  0  0  0  0
  -34.8626    3.6794  -43.9480 C   0  0  0  0  0  0  0  0  0  0  0  0
  -32.5244    6.3298  -40.1907 X   0  0  0  0  0  0  0  0  0  0  0  0
  1  2  1  0  0  0  0
  2  3  1  0  0  0  0
  3  4  1  0  0  0  0
  4  5  1  0  0  0  0
  5  6  1  0  0  0  0
  5 11  1  0  0  0  0
  6  7  1  0  0  0  0
  7  8  1  0  0  0  0
  8  9  1  0  0  0  0
  8 11  1  0  0  0  0
  9 10  1  0  0  0  0
 10 12  1  0  0  0  0
M  END
> <Index>
4152

> <PropertyFieldDistance>
nan

$$$$
2262208
BBcorina  12272117083D 1   1.00000     0.00000 
CORINA 4.3.0 0026  30.10.2019
 12 12  0  0  0  0  0  0  0  0999 V2000
  -36.1668    1.4747  -44.9471 C   0  0  0  0  0  0  0  0  0  0  0  0
  -36.3386    2.8500  -45.5951 C   0  0  0  0  0  0  0  0  0  0  0  0
  -37.7827    3.0113  -46.0742 C   0  0  0  0  0  0  0  0  0  0  0  0
  -36.0291    3.8966  -44.6119 N   0  0  0  0  0  0  0  0  0  0  0  0
  -36.9392    3.8239  -43.4618 C   0  0  0  0  0  0  0  0  0  0  0  0
  -36.6838    5.0123  -42.5319 C   0  0  0  0  0  0  0  0  0  0  0  0
  -35.2283    4.9793  -42.0574 C   0  0  0  0  0  0  0  0  0  0  0  0
  -34.3018    5.0072  -43.2763 C   0  0  0  0  0  0  0  0  0  0  0  0
  -32.8464    4.9142  -42.8139 C   0  0  0  0  0  0  0  0  0  0  0  0
  -32.5006    6.1145  -42.0408 N   0  0  0  0  0  0  0  0  0  0  0  0
  -34.6263    3.8191  -44.1848 C   0  0  0  0  0  0  0  0  0  0  0  0
  -30.8784    6.0511  -41.5036 X   0  0  0  0  0  0  0  0  0  0  0  0
  1  2  1  0  0  0  0
  2  3  1  0  0  0  0
  2  4  1  0  0  0  0
  4  5  1  0  0  0  0
  4 11  1  0  0  0  0
  5  6  1  0  0  0  0
  6  7  1  0  0  0  0
  7  8  1  0  0  0  0
  8  9  1  0  0  0  0
  8 11  1  0  0  0  0
  9 10  1  0  0  0  0
 10 12  1  0  0  0  0
M  END
> <Index>
4153

> <PropertyFieldDistance>
nan

$$$$
6107386
BBcorina  12272117083D 1   1.00000     0.00000 
CORINA 4.3.0 0026  30.10.2019
  9  9  0  0  0  0  0  0  0  0999 V2000
  -37.8850    5.2013  -41.4686 C   0  0  0  0  0  0  0  0  0  0  0  0
  -36.8449    5.2338  -42.5902 C   0  0  0  0  0  0  0  0  0  0  0  0
  -36.9722    3.9697  -43.4471 C   0  0  0  0  0  0  0  0  0  0  0  0
  -36.0090    4.0169  -44.5497 N   0  0  0  0  0  0  0  0  0  0  0  0
  -34.6311    3.8028  -44.1016 C   0  0  0  0  0  0  0  0  0  0  0  0
  -34.1301    5.0403  -43.3491 C   0  0  0  0  0  0  0  0  0  0  0  0
  -34.2238    6.2675  -44.2580 C   0  0  0  0  0  0  0  0  0  0  0  0
  -35.1720    5.2824  -41.8778 S   0  0  0  0  0  0  0  0  0  0  0  0
  -36.4323    2.9084  -45.7810 X   0  0  0  0  0  0  0  0  0  0  0  0
  1  2  1  0  0  0  0
  2  3  1  0  0  0  0
  2  8  1  0  0  0  0
  3  4  1  0  0  0  0
  4  5  1  0  0  0  0
  4  9  1  0  0  0  0
  5  6  1  0  0  0  0
  6  7  1  0  0  0  0
  6  8  1  0  0  0  0
M  END
> <Index>
4159

> <PropertyFieldDistance>
nan

$$$$
2055378
BBcorina  12272117083D 1   1.00000     0.00000 
CORINA 4.3.0 0026  30.10.2019
 14 14  0  0  0  0  0  0  0  0999 V2000
  -37.3884    2.1295  -47.8236 C   0  0  0  0  0  0  0  0  0  0  0  0
  -36.5143    1.1642  -47.0205 C   0  0  0  0  0  0  0  0  0  0  0  0
  -35.5753    0.4168  -47.9693 C   0  0  0  0  0  0  0  0  0  0  0  0
  -35.6886    1.9516  -46.0011 C   0  0  0  0  0  0  0  0  0  0  0  0
  -36.6099    2.5882  -44.9927 C   0  0  0  0  0  0  0  0  0  0  0  0
  -37.8088    2.4281  -45.0806 O   0  0  0  0  0  0  0  0  0  0  0  0
  -36.1015    3.3358  -43.9930 N   0  0  0  0  0  0  0  0  0  0  0  0
  -36.9868    3.9629  -43.0023 C   0  0  0  0  0  0  0  0  0  0  0  0
  -36.6789    5.4623  -42.9406 C   0  0  0  0  0  0  0  0  0  0  0  0
  -35.1857    5.6613  -42.6687 C   0  0  0  0  0  0  0  0  0  0  0  0
  -34.3686    5.0435  -43.8056 C   0  0  0  0  0  0  0  0  0  0  0  0
  -34.6513    3.5394  -43.8736 C   0  0  0  0  0  0  0  0  0  0  0  0
  -34.8920    7.0978  -42.5794 N   0  0  0  0  0  0  0  0  0  0  0  0
  -35.3910    7.9145  -43.9965 X   0  0  0  0  0  0  0  0  0  0  0  0
  1  2  1  0  0  0  0
  2  3  1  0  0  0  0
  2  4  1  0  0  0  0
  4  5  1  0  0  0  0
  5  6  2  0  0  0  0
  5  7  1  0  0  0  0
  7  8  1  0  0  0  0
  7 12  1  0  0  0  0
  8  9  1  0  0  0  0
  9 10  1  0  0  0  0
 10 11  1  0  0  0  0
 10 13  1  0  0  0  0
 11 12  1  0  0  0  0
 13 14  1  0  0  0  0
M  END
> <Index>
4164

> <PropertyFieldDistance>
nan

$$$$
3095216
BBcorina  12272117083D 1   1.00000     0.00000 
CORINA 4.3.0 0026  30.10.2019
 12 12  0  0  0  0  0  0  0  0999 V2000
  -36.3224    8.0491  -38.2632 C   0  0  0  0  0  0  0  0  0  0  0  0
  -35.3534    7.9325  -39.4415 C   0  0  0  0  0  0  0  0  0  0  0  0
  -35.6601    6.7224  -40.2081 N   0  0  0  0  0  0  0  0  0  0  0  0
  -34.9307    6.4122  -41.2983 C   0  0  0  0  0  0  0  0  0  0  0  0
  -34.0204    7.1350  -41.6444 O   0  0  0  0  0  0  0  0  0  0  0  0
  -35.2462    5.1675  -42.0868 C   0  0  0  0  0  0  0  0  0  0  0  0
  -36.6793    5.2476  -42.6203 C   0  0  0  0  0  0  0  0  0  0  0  0
  -36.9723    4.0086  -43.4694 C   0  0  0  0  0  0  0  0  0  0  0  0
  -36.0191    3.9414  -44.5845 N   0  0  0  0  0  0  0  0  0  0  0  0
  -34.6396    3.8164  -44.0971 C   0  0  0  0  0  0  0  0  0  0  0  0
  -34.2769    5.0496  -43.2664 C   0  0  0  0  0  0  0  0  0  0  0  0
  -36.4111    2.6624  -45.6495 X   0  0  0  0  0  0  0  0  0  0  0  0
  1  2  1  0  0  0  0
  2  3  1  0  0  0  0
  3  4  1  0  0  0  0
  4  5  2  0  0  0  0
  4  6  1  0  0  0  0
  6  7  1  0  0  0  0
  6 11  1  0  0  0  0
  7  8  1  0  0  0  0
  8  9  1  0  0  0  0
  9 10  1  0  0  0  0
  9 12  1  0  0  0  0
 10 11  1  0  0  0  0
M  END
> <Index>
4165

> <PropertyFieldDistance>
nan

$$$$
4974380
BBcorina  12272117083D 1   1.00000     0.00000 
CORINA 4.3.0 0026  30.10.2019
  9  9  0  0  0  0  0  0  0  0999 V2000
  -32.9175    5.0761  -42.8589 N   0  0  0  0  0  0  0  0  0  0  0  0
  -34.3267    5.0703  -43.2736 C   0  0  0  0  0  0  0  0  0  0  0  0
  -35.2263    4.9503  -42.0375 C   0  0  0  0  0  0  0  0  0  0  0  0
  -36.6807    5.1344  -42.4779 C   0  0  0  0  0  0  0  0  0  0  0  0
  -36.9694    4.2612  -43.6653 C   0  0  0  0  0  0  0  0  0  0  0  0
  -38.1280    4.0332  -43.9417 O   0  0  0  0  0  0  0  0  0  0  0  0
  -36.0199    3.7232  -44.4316 N   0  0  0  0  0  0  0  0  0  0  0  0
  -34.5906    3.8745  -44.1894 C   0  0  0  0  0  0  0  0  0  0  0  0
  -32.5169    3.6353  -42.0294 X   0  0  0  0  0  0  0  0  0  0  0  0
  1  2  1  0  0  0  0
  1  9  1  0  0  0  0
  2  3  1  0  0  0  0
  2  8  1  0  0  0  0
  3  4  1  0  0  0  0
  4  5  1  0  0  0  0
  5  6  2  0  0  0  0
  5  7  1  0  0  0  0
  7  8  1  0  0  0  0
M  END
> <Index>
4179

> <PropertyFieldDistance>
nan

$$$$
2447644
BBcorina  12272117083D 1   1.00000     0.00000 
CORINA 4.3.0 0026  30.10.2019
 13 13  0  0  0  0  0  0  0  0999 V2000
  -38.4749    0.3136  -46.8987 C   0  0  0  0  0  0  0  0  0  0  0  0
  -37.1027    0.5801  -46.2767 C   0  0  0  0  0  0  0  0  0  0  0  0
  -37.0898    1.9749  -45.6482 C   0  0  0  0  0  0  0  0  0  0  0  0
  -35.7176    2.2414  -45.0261 C   0  0  0  0  0  0  0  0  0  0  0  0
  -35.7053    3.5806  -44.4226 N   0  0  0  0  0  0  0  0  0  0  0  0
  -36.8496    3.7618  -43.5203 C   0  0  0  0  0  0  0  0  0  0  0  0
  -36.8861    5.2093  -43.0249 C   0  0  0  0  0  0  0  0  0  0  0  0
  -35.5793    5.5259  -42.2922 C   0  0  0  0  0  0  0  0  0  0  0  0
  -34.4007    5.2828  -43.2389 C   0  0  0  0  0  0  0  0  0  0  0  0
  -34.4363    3.8331  -43.7280 C   0  0  0  0  0  0  0  0  0  0  0  0
  -33.2716    3.5914  -44.6903 C   0  0  0  0  0  0  0  0  0  0  0  0
  -32.0007    3.7691  -43.9753 N   0  0  0  0  0  0  0  0  0  0  0  0
  -30.6729    3.6458  -45.0457 X   0  0  0  0  0  0  0  0  0  0  0  0
  1  2  1  0  0  0  0
  2  3  1  0  0  0  0
  3  4  1  0  0  0  0
  4  5  1  0  0  0  0
  5  6  1  0  0  0  0
  5 10  1  0  0  0  0
  6  7  1  0  0  0  0
  7  8  1  0  0  0  0
  8  9  1  0  0  0  0
  9 10  1  0  0  0  0
 10 11  1  0  0  0  0
 11 12  1  0  0  0  0
 12 13  1  0  0  0  0
M  END
> <Index>
4190

> <PropertyFieldDistance>
nan

$$$$
2563306
BBcorina  12272117083D 1   1.00000     0.00000 
CORINA 4.3.0 0026  30.10.2019
 10 10  0  0  0  0  0  0  0  0999 V2000
  -36.3354    2.3075  -44.8787 C   0  0  0  0  0  0  0  0  0  0  0  0
  -35.9453    3.3416  -43.9110 N   0  0  0  0  0  0  0  0  0  0  0  0
  -37.0432    4.2897  -43.6828 C   0  0  0  0  0  0  0  0  0  0  0  0
  -36.6554    5.2625  -42.5667 C   0  0  0  0  0  0  0  0  0  0  0  0
  -35.3834    6.0133  -42.9700 C   0  0  0  0  0  0  0  0  0  0  0  0
  -34.9562    6.9432  -41.8327 C   0  0  0  0  0  0  0  0  0  0  0  0
  -33.8072    7.7499  -42.2650 N   0  0  0  0  0  0  0  0  0  0  0  0
  -34.2691    5.0007  -43.2489 C   0  0  0  0  0  0  0  0  0  0  0  0
  -34.7262    4.0356  -44.3451 C   0  0  0  0  0  0  0  0  0  0  0  0
  -33.2966    8.8056  -41.0205 X   0  0  0  0  0  0  0  0  0  0  0  0
  1  2  1  0  0  0  0
  2  3  1  0  0  0  0
  2  9  1  0  0  0  0
  3  4  1  0  0  0  0
  4  5  1  0  0  0  0
  5  6  1  0  0  0  0
  5  8  1  0  0  0  0
  6  7  1  0  0  0  0
  7 10  1  0  0  0  0
  8  9  1  0  0  0  0
M  END
> <Index>
4200

> <PropertyFieldDistance>
nan

$$$$
4279432
BBcorina  12272117083D 1   1.00000     0.00000 
CORINA 4.3.0 0026  30.10.2019
 10 10  0  0  0  0  0  0  0  0999 V2000
  -36.3495    2.3570  -44.9464 C   0  0  0  0  0  0  0  0  0  0  0  0
  -36.0372    3.6631  -44.3508 N   0  0  0  0  0  0  0  0  0  0  0  0
  -36.9514    3.9683  -43.2428 C   0  0  0  0  0  0  0  0  0  0  0  0
  -36.6923    5.3914  -42.7433 C   0  0  0  0  0  0  0  0  0  0  0  0
  -35.2385    5.5067  -42.2767 C   0  0  0  0  0  0  0  0  0  0  0  0
  -34.3081    5.1368  -43.4352 C   0  0  0  0  0  0  0  0  0  0  0  0
  -32.8547    5.1913  -42.9603 C   0  0  0  0  0  0  0  0  0  0  0  0
  -31.9582    4.9494  -44.0988 N   0  0  0  0  0  0  0  0  0  0  0  0
  -34.6362    3.7210  -43.9146 C   0  0  0  0  0  0  0  0  0  0  0  0
  -30.3202    5.0016  -43.6108 X   0  0  0  0  0  0  0  0  0  0  0  0
  1  2  1  0  0  0  0
  2  3  1  0  0  0  0
  2  9  1  0  0  0  0
  3  4  1  0  0  0  0
  4  5  1  0  0  0  0
  5  6  1  0  0  0  0
  6  7  1  0  0  0  0
  6  9  1  0  0  0  0
  7  8  1  0  0  0  0
  8 10  1  0  0  0  0
M  END
> <Index>
4203

> <PropertyFieldDistance>
nan

$$$$
13596924
BBcorina  12272117083D 1   1.00000     0.00000 
CORINA 4.3.0 0026  30.10.2019
 10 10  0  0  0  0  0  0  0  0999 V2000
  -36.3353    2.3075  -44.8786 C   0  0  0  0  0  0  0  0  0  0  0  0
  -35.9453    3.3416  -43.9110 N   0  0  0  0  0  0  0  0  0  0  0  0
  -37.0433    4.2898  -43.6827 C   0  0  0  0  0  0  0  0  0  0  0  0
  -36.6554    5.2624  -42.5667 C   0  0  0  0  0  0  0  0  0  0  0  0
  -35.3834    6.0133  -42.9700 C   0  0  0  0  0  0  0  0  0  0  0  0
  -34.2691    5.0007  -43.2489 C   0  0  0  0  0  0  0  0  0  0  0  0
  -34.7262    4.0356  -44.3451 C   0  0  0  0  0  0  0  0  0  0  0  0
  -33.6234    3.0095  -44.6129 C   0  0  0  0  0  0  0  0  0  0  0  0
  -33.4350    2.1711  -43.4215 N   0  0  0  0  0  0  0  0  0  0  0  0
  -32.2082    1.0078  -43.6785 X   0  0  0  0  0  0  0  0  0  0  0  0
  1  2  1  0  0  0  0
  2  3  1  0  0  0  0
  2  7  1  0  0  0  0
  3  4  1  0  0  0  0
  4  5  1  0  0  0  0
  5  6  1  0  0  0  0
  6  7  1  0  0  0  0
  7  8  1  0  0  0  0
  8  9  1  0  0  0  0
  9 10  1  0  0  0  0
M  END
> <Index>
4204

> <PropertyFieldDistance>
nan

$$$$
2308558
BBcorina  12272117083D 1   1.00000     0.00000 
CORINA 4.3.0 0026  30.10.2019
 12 12  0  0  0  0  0  0  0  0999 V2000
  -36.9853    3.4255  -46.3186 F   0  0  0  0  0  0  0  0  0  0  0  0
  -36.1789    2.3180  -46.0353 C   0  0  0  0  0  0  0  0  0  0  0  0
  -34.8560    2.6010  -46.3921 F   0  0  0  0  0  0  0  0  0  0  0  0
  -36.2480    2.0061  -44.5390 C   0  0  0  0  0  0  0  0  0  0  0  0
  -35.9136    3.2130  -43.7713 N   0  0  0  0  0  0  0  0  0  0  0  0
  -37.0395    4.1556  -43.7558 C   0  0  0  0  0  0  0  0  0  0  0  0
  -36.7109    5.3298  -42.8309 C   0  0  0  0  0  0  0  0  0  0  0  0
  -35.4433    6.0280  -43.3313 C   0  0  0  0  0  0  0  0  0  0  0  0
  -34.2980    5.0131  -43.3839 C   0  0  0  0  0  0  0  0  0  0  0  0
  -34.6966    3.8481  -44.2927 C   0  0  0  0  0  0  0  0  0  0  0  0
  -35.0906    7.1209  -42.4152 N   0  0  0  0  0  0  0  0  0  0  0  0
  -34.6970    6.5177  -40.8644 X   0  0  0  0  0  0  0  0  0  0  0  0
  1  2  1  0  0  0  0
  2  3  1  0  0  0  0
  2  4  1  0  0  0  0
  4  5  1  0  0  0  0
  5  6  1  0  0  0  0
  5 10  1  0  0  0  0
  6  7  1  0  0  0  0
  7  8  1  0  0  0  0
  8  9  1  0  0  0  0
  8 11  1  0  0  0  0
  9 10  1  0  0  0  0
 11 12  1  0  0  0  0
M  END
> <Index>
4207

> <PropertyFieldDistance>
nan

$$$$
2308526
BBcorina  12272117083D 1   1.00000     0.00000 
CORINA 4.3.0 0026  30.10.2019
 11 11  0  0  0  0  0  0  0  0999 V2000
  -38.1742    2.3057  -45.3177 F   0  0  0  0  0  0  0  0  0  0  0  0
  -36.9286    2.0501  -45.9010 C   0  0  0  0  0  0  0  0  0  0  0  0
  -36.6817    2.9924  -46.9052 F   0  0  0  0  0  0  0  0  0  0  0  0
  -35.8365    2.1442  -44.8336 C   0  0  0  0  0  0  0  0  0  0  0  0
  -35.7435    3.5278  -44.3489 N   0  0  0  0  0  0  0  0  0  0  0  0
  -36.8431    3.8369  -43.4241 C   0  0  0  0  0  0  0  0  0  0  0  0
  -36.7559    5.3063  -43.0052 C   0  0  0  0  0  0  0  0  0  0  0  0
  -35.4533    5.5563  -42.3725 N   0  0  0  0  0  0  0  0  0  0  0  0
  -34.3539    5.2472  -43.2973 C   0  0  0  0  0  0  0  0  0  0  0  0
  -34.4409    3.7778  -43.7162 C   0  0  0  0  0  0  0  0  0  0  0  0
  -35.3451    7.1669  -41.8082 X   0  0  0  0  0  0  0  0  0  0  0  0
  1  2  1  0  0  0  0
  2  3  1  0  0  0  0
  2  4  1  0  0  0  0
  4  5  1  0  0  0  0
  5  6  1  0  0  0  0
  5 10  1  0  0  0  0
  6  7  1  0  0  0  0
  7  8  1  0  0  0  0
  8  9  1  0  0  0  0
  8 11  1  0  0  0  0
  9 10  1  0  0  0  0
M  END
> <Index>
4208

> <PropertyFieldDistance>
nan

$$$$
2391214
BBcorina  12272117083D 1   1.00000     0.00000 
CORINA 4.3.0 0026  30.10.2019
 15 16  0  0  0  0  0  0  0  0999 V2000
  -34.6277    6.5908  -41.6315 C   0  0  0  0  0  0  0  0  0  0  0  0
  -35.2321    5.8578  -42.8310 C   0  0  0  0  0  0  0  0  0  0  0  0
  -36.5239    5.1556  -42.4037 C   0  0  0  0  0  0  0  0  0  0  0  0
  -37.0919    4.3761  -43.5918 C   0  0  0  0  0  0  0  0  0  0  0  0
  -36.1051    3.3890  -44.0482 N   0  0  0  0  0  0  0  0  0  0  0  0
  -36.6675    2.5287  -45.0976 C   0  0  0  0  0  0  0  0  0  0  0  0
  -35.5846    1.5783  -45.6127 C   0  0  0  0  0  0  0  0  0  0  0  0
  -35.1126    0.6732  -44.4714 C   0  0  0  0  0  0  0  0  0  0  0  0
  -34.0729   -0.3136  -45.0096 C   0  0  0  0  0  0  0  0  0  0  0  0
  -34.6887   -1.1225  -46.1535 C   0  0  0  0  0  0  0  0  0  0  0  0
  -35.1236   -0.2117  -47.2201 N   0  0  0  0  0  0  0  0  0  0  0  0
  -36.1567    0.7145  -46.7390 C   0  0  0  0  0  0  0  0  0  0  0  0
  -34.8734    4.0432  -44.5079 C   0  0  0  0  0  0  0  0  0  0  0  0
  -34.2391    4.8129  -43.3472 C   0  0  0  0  0  0  0  0  0  0  0  0
  -35.6703   -1.0838  -48.5857 X   0  0  0  0  0  0  0  0  0  0  0  0
  1  2  1  0  0  0  0
  2  3  1  0  0  0  0
  2 14  1  0  0  0  0
  3  4  1  0  0  0  0
  4  5  1  0  0  0  0
  5  6  1  0  0  0  0
  5 13  1  0  0  0  0
  6  7  1  0  0  0  0
  7  8  1  0  0  0  0
  7 12  1  0  0  0  0
  8  9  1  0  0  0  0
  9 10  1  0  0  0  0
 10 11  1  0  0  0  0
 11 12  1  0  0  0  0
 11 15  1  0  0  0  0
 13 14  1  0  0  0  0
M  END
> <Index>
4218

> <PropertyFieldDistance>
nan

$$$$
4860558
BBcorina  12272117083D 1   1.00000     0.00000 
CORINA 4.3.0 0026  30.10.2019
  9  9  0  0  0  0  0  0  0  0999 V2000
  -36.0172    3.5927  -44.4913 N   0  0  0  0  0  0  0  0  0  0  0  0
  -36.3934    2.1751  -44.5752 C   0  0  0  0  0  0  0  0  0  0  0  0
  -36.1059    1.6538  -45.9847 C   0  0  0  0  0  0  0  0  0  0  0  0
  -36.6124    0.2193  -46.1028 C   0  0  0  0  0  0  0  0  0  0  0  0
  -36.5854   -0.2254  -47.5676 C   0  0  0  0  0  0  0  0  0  0  0  0
  -34.8643   -0.2179  -48.1515 S   0  0  0  0  0  0  0  0  0  0  0  0
  -34.3228    1.4654  -47.7315 C   0  0  0  0  0  0  0  0  0  0  0  0
  -34.6045    1.7197  -46.2483 C   0  0  0  0  0  0  0  0  0  0  0  0
  -36.3229    4.2163  -42.9287 X   0  0  0  0  0  0  0  0  0  0  0  0
  1  2  1  0  0  0  0
  1  9  1  0  0  0  0
  2  3  1  0  0  0  0
  3  4  1  0  0  0  0
  3  8  1  0  0  0  0
  4  5  1  0  0  0  0
  5  6  1  0  0  0  0
  6  7  1  0  0  0  0
  7  8  1  0  0  0  0
M  END
> <Index>
4224

> <PropertyFieldDistance>
nan

$$$$
2348906
BBcorina  12272117083D 1   1.00000     0.00000 
CORINA 4.3.0 0026  30.10.2019
  9  9  0  0  0  0  0  0  0  0999 V2000
  -33.1849    5.8551  -43.8872 N   0  0  0  0  0  0  0  0  0  0  0  0
  -34.2411    5.0582  -43.2491 C   0  0  0  0  0  0  0  0  0  0  0  0
  -35.4240    5.9658  -42.9028 C   0  0  0  0  0  0  0  0  0  0  0  0
  -36.6108    5.0833  -42.4978 C   0  0  0  0  0  0  0  0  0  0  0  0
  -37.0857    4.3073  -43.7269 C   0  0  0  0  0  0  0  0  0  0  0  0
  -35.9635    3.6396  -44.3742 N   0  0  0  0  0  0  0  0  0  0  0  0
  -34.6862    3.9753  -44.1897 C   0  0  0  0  0  0  0  0  0  0  0  0
  -33.8386    3.3743  -44.8152 O   0  0  0  0  0  0  0  0  0  0  0  0
  -31.6398    5.2007  -43.5579 X   0  0  0  0  0  0  0  0  0  0  0  0
  1  2  1  0  0  0  0
  1  9  1  0  0  0  0
  2  3  1  0  0  0  0
  2  7  1  0  0  0  0
  3  4  1  0  0  0  0
  4  5  1  0  0  0  0
  5  6  1  0  0  0  0
  6  7  1  0  0  0  0
  7  8  2  0  0  0  0
M  END
> <Index>
4230

> <PropertyFieldDistance>
nan

$$$$
2206672
BBcorina  12272117083D 1   1.00000     0.00000 
CORINA 4.3.0 0026  30.10.2019
 13 13  0  0  0  0  0  0  0  0999 V2000
  -36.7776   -2.0411  -46.6394 N   0  0  0  0  0  0  0  0  0  0  0  0
  -36.4853   -1.0848  -45.5633 C   0  0  0  0  0  0  0  0  0  0  0  0
  -36.5252    0.3391  -46.1217 C   0  0  0  0  0  0  0  0  0  0  0  0
  -36.2208    1.3351  -45.0009 C   0  0  0  0  0  0  0  0  0  0  0  0
  -36.2606    2.7591  -45.5593 C   0  0  0  0  0  0  0  0  0  0  0  0
  -35.9691    3.7128  -44.4860 N   0  0  0  0  0  0  0  0  0  0  0  0
  -37.0894    4.2351  -43.7136 C   0  0  0  0  0  0  0  0  0  0  0  0
  -36.5976    4.8089  -42.3822 C   0  0  0  0  0  0  0  0  0  0  0  0
  -35.4473    5.7824  -42.6663 C   0  0  0  0  0  0  0  0  0  0  0  0
  -34.2519    4.9802  -43.1862 C   0  0  0  0  0  0  0  0  0  0  0  0
  -34.6961    4.0527  -44.2808 C   0  0  0  0  0  0  0  0  0  0  0  0
  -33.8520    3.5883  -45.0174 O   0  0  0  0  0  0  0  0  0  0  0  0
  -36.7431   -3.6485  -46.0569 X   0  0  0  0  0  0  0  0  0  0  0  0
  1  2  1  0  0  0  0
  1 13  1  0  0  0  0
  2  3  1  0  0  0  0
  3  4  1  0  0  0  0
  4  5  1  0  0  0  0
  5  6  1  0  0  0  0
  6  7  1  0  0  0  0
  6 11  1  0  0  0  0
  7  8  1  0  0  0  0
  8  9  1  0  0  0  0
  9 10  1  0  0  0  0
 10 11  1  0  0  0  0
 11 12  2  0  0  0  0
M  END
> <Index>
4237

> <PropertyFieldDistance>
nan

$$$$
2304144
BBcorina  12272117083D 1   1.00000     0.00000 
CORINA 4.3.0 0026  30.10.2019
 14 15  0  0  0  0  0  0  0  0999 V2000
  -36.2488    2.2754  -44.7945 C   0  0  0  0  0  0  0  0  0  0  0  0
  -36.0807    3.6763  -44.3857 N   0  0  0  0  0  0  0  0  0  0  0  0
  -36.9229    3.9902  -43.2298 C   0  0  0  0  0  0  0  0  0  0  0  0
  -36.6851    5.4523  -42.8318 C   0  0  0  0  0  0  0  0  0  0  0  0
  -35.2615    5.5650  -42.2813 C   0  0  0  0  0  0  0  0  0  0  0  0
  -34.3018    4.8645  -43.2098 C   0  0  0  0  0  0  0  0  0  0  0  0
  -32.9483    5.1264  -43.0694 C   0  0  0  0  0  0  0  0  0  0  0  0
  -32.0261    4.5073  -43.8900 C   0  0  0  0  0  0  0  0  0  0  0  0
  -30.5566    4.7996  -43.7289 C   0  0  0  0  0  0  0  0  0  0  0  0
  -29.9713    3.8530  -42.7699 N   0  0  0  0  0  0  0  0  0  0  0  0
  -32.4533    3.6186  -44.8592 C   0  0  0  0  0  0  0  0  0  0  0  0
  -33.7985    3.3559  -45.0073 C   0  0  0  0  0  0  0  0  0  0  0  0
  -34.7353    3.9791  -44.1815 C   0  0  0  0  0  0  0  0  0  0  0  0
  -28.3008    4.1502  -42.5574 X   0  0  0  0  0  0  0  0  0  0  0  0
  1  2  1  0  0  0  0
  2  3  1  0  0  0  0
  2 13  1  0  0  0  0
  3  4  1  0  0  0  0
  4  5  1  0  0  0  0
  5  6  1  0  0  0  0
  6  7  2  0  0  0  0
  6 13  1  0  0  0  0
  7  8  1  0  0  0  0
  8  9  1  0  0  0  0
  8 11  2  0  0  0  0
  9 10  1  0  0  0  0
 10 14  1  0  0  0  0
 11 12  1  0  0  0  0
 12 13  2  0  0  0  0
M  END
> <Index>
4239

> <PropertyFieldDistance>
nan

$$$$
2196702
BBcorina  12272117083D 1   1.00000     0.00000 
CORINA 4.3.0 0026  30.10.2019
 11 12  0  0  0  0  0  0  0  0999 V2000
  -36.0184    3.8742  -44.5497 N   0  0  0  0  0  0  0  0  0  0  0  0
  -36.9579    4.0386  -43.4354 C   0  0  0  0  0  0  0  0  0  0  0  0
  -36.6577    5.3563  -42.7197 C   0  0  0  0  0  0  0  0  0  0  0  0
  -35.2708    5.3508  -42.2294 N   0  0  0  0  0  0  0  0  0  0  0  0
  -34.9917    6.5926  -41.4929 C   0  0  0  0  0  0  0  0  0  0  0  0
  -33.5890    6.5379  -40.8863 C   0  0  0  0  0  0  0  0  0  0  0  0
  -32.5656    6.3604  -42.0121 C   0  0  0  0  0  0  0  0  0  0  0  0
  -32.8921    5.0783  -42.7805 C   0  0  0  0  0  0  0  0  0  0  0  0
  -34.3193    5.1575  -43.3309 C   0  0  0  0  0  0  0  0  0  0  0  0
  -34.6334    3.8491  -44.0624 C   0  0  0  0  0  0  0  0  0  0  0  0
  -36.3767    2.4655  -45.4503 X   0  0  0  0  0  0  0  0  0  0  0  0
  1  2  1  0  0  0  0
  1 10  1  0  0  0  0
  1 11  1  0  0  0  0
  2  3  1  0  0  0  0
  3  4  1  0  0  0  0
  4  5  1  0  0  0  0
  4  9  1  0  0  0  0
  5  6  1  0  0  0  0
  6  7  1  0  0  0  0
  7  8  1  0  0  0  0
  8  9  1  0  0  0  0
  9 10  1  0  0  0  0
M  END
> <Index>
4297

> <PropertyFieldDistance>
nan

$$$$
2208120
BBcorina  12272117083D 1   1.00000     0.00000 
CORINA 4.3.0 0026  30.10.2019
 14 15  0  0  0  0  0  0  0  0999 V2000
  -38.1842    3.1439  -43.3059 C   0  0  0  0  0  0  0  0  0  0  0  0
  -37.0297    3.9937  -43.8409 C   0  0  0  0  0  0  0  0  0  0  0  0
  -36.6273    5.0794  -42.8165 C   0  0  0  0  0  0  0  0  0  0  0  0
  -35.1222    5.1546  -42.9788 C   0  0  0  0  0  0  0  0  0  0  0  0
  -34.2054    6.1040  -42.5799 C   0  0  0  0  0  0  0  0  0  0  0  0
  -32.8629    5.9361  -42.8690 C   0  0  0  0  0  0  0  0  0  0  0  0
  -32.4419    4.8150  -43.5600 C   0  0  0  0  0  0  0  0  0  0  0  0
  -33.3548    3.8608  -43.9591 C   0  0  0  0  0  0  0  0  0  0  0  0
  -34.7083    4.0208  -43.6684 C   0  0  0  0  0  0  0  0  0  0  0  0
  -35.7954    3.1872  -43.9589 N   0  0  0  0  0  0  0  0  0  0  0  0
  -35.6709    2.6091  -45.3036 C   0  0  0  0  0  0  0  0  0  0  0  0
  -36.9243    1.7931  -45.6260 C   0  0  0  0  0  0  0  0  0  0  0  0
  -36.7444    1.1070  -46.9125 N   0  0  0  0  0  0  0  0  0  0  0  0
  -38.1258    0.1814  -47.3118 X   0  0  0  0  0  0  0  0  0  0  0  0
  1  2  1  0  0  0  0
  2  3  1  0  0  0  0
  2 10  1  0  0  0  0
  3  4  1  0  0  0  0
  4  5  2  0  0  0  0
  4  9  1  0  0  0  0
  5  6  1  0  0  0  0
  6  7  2  0  0  0  0
  7  8  1  0  0  0  0
  8  9  2  0  0  0  0
  9 10  1  0  0  0  0
 10 11  1  0  0  0  0
 11 12  1  0  0  0  0
 12 13  1  0  0  0  0
 13 14  1  0  0  0  0
M  END
> <Index>
4306

> <PropertyFieldDistance>
nan

$$$$
4820324
BBcorina  12272117083D 1   1.00000     0.00000 
CORINA 4.3.0 0026  30.10.2019
 13 13  0  0  0  0  0  0  0  0999 V2000
  -35.6779    0.5696  -47.9595 C   0  0  0  0  0  0  0  0  0  0  0  0
  -36.4598    1.2162  -46.9531 O   0  0  0  0  0  0  0  0  0  0  0  0
  -35.6886    1.9516  -46.0011 C   0  0  0  0  0  0  0  0  0  0  0  0
  -36.6099    2.5882  -44.9927 C   0  0  0  0  0  0  0  0  0  0  0  0
  -37.8088    2.4281  -45.0806 O   0  0  0  0  0  0  0  0  0  0  0  0
  -36.1015    3.3358  -43.9930 N   0  0  0  0  0  0  0  0  0  0  0  0
  -36.9868    3.9629  -43.0023 C   0  0  0  0  0  0  0  0  0  0  0  0
  -36.6789    5.4623  -42.9406 C   0  0  0  0  0  0  0  0  0  0  0  0
  -35.1857    5.6613  -42.6687 C   0  0  0  0  0  0  0  0  0  0  0  0
  -34.3686    5.0435  -43.8056 C   0  0  0  0  0  0  0  0  0  0  0  0
  -34.6513    3.5394  -43.8736 C   0  0  0  0  0  0  0  0  0  0  0  0
  -34.8920    7.0978  -42.5794 N   0  0  0  0  0  0  0  0  0  0  0  0
  -35.3910    7.9145  -43.9965 X   0  0  0  0  0  0  0  0  0  0  0  0
  1  2  1  0  0  0  0
  2  3  1  0  0  0  0
  3  4  1  0  0  0  0
  4  5  2  0  0  0  0
  4  6  1  0  0  0  0
  6  7  1  0  0  0  0
  6 11  1  0  0  0  0
  7  8  1  0  0  0  0
  8  9  1  0  0  0  0
  9 10  1  0  0  0  0
  9 12  1  0  0  0  0
 10 11  1  0  0  0  0
 12 13  1  0  0  0  0
M  END
> <Index>
4307

> <PropertyFieldDistance>
nan

$$$$
2196716
BBcorina  12272117083D 1   1.00000     0.00000 
CORINA 4.3.0 0026  30.10.2019
 16 17  0  0  0  0  0  0  0  0999 V2000
  -34.6866    6.4741  -41.5549 N   0  0  0  0  0  0  0  0  0  0  0  0
  -35.2452    5.8264  -42.7492 C   0  0  0  0  0  0  0  0  0  0  0  0
  -36.5387    5.0963  -42.3778 C   0  0  0  0  0  0  0  0  0  0  0  0
  -37.0834    4.3733  -43.6116 C   0  0  0  0  0  0  0  0  0  0  0  0
  -36.0832    3.4158  -44.1006 N   0  0  0  0  0  0  0  0  0  0  0  0
  -36.6237    2.6053  -45.2000 C   0  0  0  0  0  0  0  0  0  0  0  0
  -35.6703    1.4801  -45.5103 C   0  0  0  0  0  0  0  0  0  0  0  0
  -34.6420    1.3648  -44.8779 O   0  0  0  0  0  0  0  0  0  0  0  0
  -35.9606    0.6020  -46.4907 N   0  0  0  0  0  0  0  0  0  0  0  0
  -35.1239   -0.5369  -46.8962 C   0  0  0  0  0  0  0  0  0  0  0  0
  -35.8426   -1.2393  -48.0674 C   0  0  0  0  0  0  0  0  0  0  0  0
  -36.7651   -0.1247  -48.6278 C   0  0  0  0  0  0  0  0  0  0  0  0
  -37.1727    0.6206  -47.3297 C   0  0  0  0  0  0  0  0  0  0  0  0
  -34.8487    4.0990  -44.5080 C   0  0  0  0  0  0  0  0  0  0  0  0
  -34.2375    4.8139  -43.3007 C   0  0  0  0  0  0  0  0  0  0  0  0
  -34.2430    5.3141  -40.3794 X   0  0  0  0  0  0  0  0  0  0  0  0
  1  2  1  0  0  0  0
  1 16  1  0  0  0  0
  2  3  1  0  0  0  0
  2 15  1  0  0  0  0
  3  4  1  0  0  0  0
  4  5  1  0  0  0  0
  5  6  1  0  0  0  0
  5 14  1  0  0  0  0
  6  7  1  0  0  0  0
  7  8  2  0  0  0  0
  7  9  1  0  0  0  0
  9 10  1  0  0  0  0
  9 13  1  0  0  0  0
 10 11  1  0  0  0  0
 11 12  1  0  0  0  0
 12 13  1  0  0  0  0
 14 15  1  0  0  0  0
M  END
> <Index>
4311

> <PropertyFieldDistance>
nan

$$$$
4545156
BBcorina  12272117083D 1   1.00000     0.00000 
CORINA 4.3.0 0026  30.10.2019
 12 12  0  0  0  0  0  0  0  0999 V2000
  -35.4810    0.2195  -47.8643 C   0  0  0  0  0  0  0  0  0  0  0  0
  -36.2011    0.5314  -46.5509 C   0  0  0  0  0  0  0  0  0  0  0  0
  -35.7987    1.9261  -46.0674 C   0  0  0  0  0  0  0  0  0  0  0  0
  -36.5188    2.2379  -44.7540 C   0  0  0  0  0  0  0  0  0  0  0  0
  -36.1324    3.5770  -44.2897 N   0  0  0  0  0  0  0  0  0  0  0  0
  -36.9749    4.0081  -43.1668 C   0  0  0  0  0  0  0  0  0  0  0  0
  -36.6429    5.4576  -42.8054 C   0  0  0  0  0  0  0  0  0  0  0  0
  -35.1631    5.5577  -42.4253 C   0  0  0  0  0  0  0  0  0  0  0  0
  -34.3092    5.0575  -43.5937 C   0  0  0  0  0  0  0  0  0  0  0  0
  -34.7087    3.6195  -43.9322 C   0  0  0  0  0  0  0  0  0  0  0  0
  -34.8246    6.9572  -42.1338 N   0  0  0  0  0  0  0  0  0  0  0  0
  -35.2110    7.9694  -43.4567 X   0  0  0  0  0  0  0  0  0  0  0  0
  1  2  1  0  0  0  0
  2  3  1  0  0  0  0
  3  4  1  0  0  0  0
  4  5  1  0  0  0  0
  5  6  1  0  0  0  0
  5 10  1  0  0  0  0
  6  7  1  0  0  0  0
  7  8  1  0  0  0  0
  8  9  1  0  0  0  0
  8 11  1  0  0  0  0
  9 10  1  0  0  0  0
 11 12  1  0  0  0  0
M  END
> <Index>
4316

> <PropertyFieldDistance>
nan

$$$$
2082132
BBcorina  12272117083D 1   1.00000     0.00000 
CORINA 4.3.0 0026  30.10.2019
 14 15  0  0  0  0  0  0  0  0999 V2000
  -36.9468    0.4444  -45.9839 N   0  0  0  0  0  0  0  0  0  0  0  0
  -37.0495    1.8112  -45.4553 C   0  0  0  0  0  0  0  0  0  0  0  0
  -35.6586    2.3106  -45.0591 C   0  0  0  0  0  0  0  0  0  0  0  0
  -35.7613    3.6774  -44.5305 N   0  0  0  0  0  0  0  0  0  0  0  0
  -36.8249    3.7740  -43.5287 C   0  0  0  0  0  0  0  0  0  0  0  0
  -36.8683    5.2115  -42.9957 C   0  0  0  0  0  0  0  0  0  0  0  0
  -35.5897    5.4548  -42.1907 C   0  0  0  0  0  0  0  0  0  0  0  0
  -34.3961    4.9727  -42.9761 C   0  0  0  0  0  0  0  0  0  0  0  0
  -33.1378    5.3946  -42.5775 C   0  0  0  0  0  0  0  0  0  0  0  0
  -32.0104    4.9723  -43.2539 C   0  0  0  0  0  0  0  0  0  0  0  0
  -32.1353    4.1266  -44.3407 C   0  0  0  0  0  0  0  0  0  0  0  0
  -33.3835    3.7003  -44.7413 C   0  0  0  0  0  0  0  0  0  0  0  0
  -34.5268    4.1264  -44.0636 C   0  0  0  0  0  0  0  0  0  0  0  0
  -38.4826   -0.1533  -46.4398 X   0  0  0  0  0  0  0  0  0  0  0  0
  1  2  1  0  0  0  0
  1 14  1  0  0  0  0
  2  3  1  0  0  0  0
  3  4  1  0  0  0  0
  4  5  1  0  0  0  0
  4 13  1  0  0  0  0
  5  6  1  0  0  0  0
  6  7  1  0  0  0  0
  7  8  1  0  0  0  0
  8  9  2  0  0  0  0
  8 13  1  0  0  0  0
  9 10  1  0  0  0  0
 10 11  2  0  0  0  0
 11 12  1  0  0  0  0
 12 13  2  0  0  0  0
M  END
> <Index>
4323

> <PropertyFieldDistance>
nan

$$$$
13843854
BBcorina  12272117083D 1   1.00000     0.00000 
CORINA 4.3.0 0026  30.10.2019
 12 12  0  0  0  0  0  0  0  0999 V2000
  -34.6941    5.9000  -41.1462 C   0  0  0  0  0  0  0  0  0  0  0  0
  -35.2254    5.4108  -42.4253 N   0  0  0  0  0  0  0  0  0  0  0  0
  -36.5625    4.8278  -42.2517 C   0  0  0  0  0  0  0  0  0  0  0  0
  -37.1541    4.4965  -43.6258 C   0  0  0  0  0  0  0  0  0  0  0  0
  -36.1970    3.6509  -44.3552 N   0  0  0  0  0  0  0  0  0  0  0  0
  -34.8000    4.1018  -44.4479 C   0  0  0  0  0  0  0  0  0  0  0  0
  -34.3023    4.4514  -43.0463 C   0  0  0  0  0  0  0  0  0  0  0  0
  -36.5882    2.4909  -44.9188 C   0  0  0  0  0  0  0  0  0  0  0  0
  -37.7432    2.1320  -44.8282 O   0  0  0  0  0  0  0  0  0  0  0  0
  -35.5907    1.6398  -45.6615 C   0  0  0  0  0  0  0  0  0  0  0  0
  -36.2602    0.4384  -46.1775 N   0  0  0  0  0  0  0  0  0  0  0  0
  -35.1614   -0.5574  -47.0291 X   0  0  0  0  0  0  0  0  0  0  0  0
  1  2  1  0  0  0  0
  2  3  1  0  0  0  0
  2  7  1  0  0  0  0
  3  4  1  0  0  0  0
  4  5  1  0  0  0  0
  5  6  1  0  0  0  0
  5  8  1  0  0  0  0
  6  7  1  0  0  0  0
  8  9  2  0  0  0  0
  8 10  1  0  0  0  0
 10 11  1  0  0  0  0
 11 12  1  0  0  0  0
M  END
> <Index>
4333

> <PropertyFieldDistance>
nan

$$$$
4351286
BBcorina  12272117083D 1   1.00000     0.00000 
CORINA 4.3.0 0026  30.10.2019
 12 12  0  0  0  0  0  0  0  0999 V2000
  -34.0991    8.5617  -42.5135 C   0  0  0  0  0  0  0  0  0  0  0  0
  -33.7605    7.3567  -41.6337 C   0  0  0  0  0  0  0  0  0  0  0  0
  -33.2624    7.8436  -40.2715 C   0  0  0  0  0  0  0  0  0  0  0  0
  -34.9621    6.5318  -41.4494 N   0  0  0  0  0  0  0  0  0  0  0  0
  -36.0683    7.3281  -40.9014 C   0  0  0  0  0  0  0  0  0  0  0  0
  -35.3535    5.8832  -42.7080 C   0  0  0  0  0  0  0  0  0  0  0  0
  -36.6587    5.1099  -42.5008 C   0  0  0  0  0  0  0  0  0  0  0  0
  -37.0290    4.3869  -43.7977 C   0  0  0  0  0  0  0  0  0  0  0  0
  -35.9479    3.4664  -44.1722 N   0  0  0  0  0  0  0  0  0  0  0  0
  -34.6959    4.1916  -44.4227 C   0  0  0  0  0  0  0  0  0  0  0  0
  -34.2558    4.9087  -43.1443 C   0  0  0  0  0  0  0  0  0  0  0  0
  -36.3897    2.5208  -45.5268 X   0  0  0  0  0  0  0  0  0  0  0  0
  1  2  1  0  0  0  0
  2  3  1  0  0  0  0
  2  4  1  0  0  0  0
  4  5  1  0  0  0  0
  4  6  1  0  0  0  0
  6  7  1  0  0  0  0
  6 11  1  0  0  0  0
  7  8  1  0  0  0  0
  8  9  1  0  0  0  0
  9 10  1  0  0  0  0
  9 12  1  0  0  0  0
 10 11  1  0  0  0  0
M  END
> <Index>
4344

> <PropertyFieldDistance>
nan

$$$$
2087034
BBcorina  12272117083D 1   1.00000     0.00000 
CORINA 4.3.0 0026  30.10.2019
 11 12  0  0  0  0  0  0  0  0999 V2000
  -36.0177    3.9538  -44.5801 N   0  0  0  0  0  0  0  0  0  0  0  0
  -36.9731    4.0013  -43.4662 C   0  0  0  0  0  0  0  0  0  0  0  0
  -36.7032    5.2467  -42.6155 C   0  0  0  0  0  0  0  0  0  0  0  0
  -35.2539    5.2160  -42.1341 C   0  0  0  0  0  0  0  0  0  0  0  0
  -34.9008    6.3522  -41.1682 C   0  0  0  0  0  0  0  0  0  0  0  0
  -34.7048    5.2728  -40.1217 C   0  0  0  0  0  0  0  0  0  0  0  0
  -34.3876    5.2784  -38.9512 O   0  0  0  0  0  0  0  0  0  0  0  0
  -35.0246    4.2963  -41.0119 N   0  0  0  0  0  0  0  0  0  0  0  0
  -34.2553    5.0491  -43.2779 C   0  0  0  0  0  0  0  0  0  0  0  0
  -34.6380    3.8128  -44.0980 C   0  0  0  0  0  0  0  0  0  0  0  0
  -36.4151    2.7020  -45.6753 X   0  0  0  0  0  0  0  0  0  0  0  0
  1  2  1  0  0  0  0
  1 10  1  0  0  0  0
  1 11  1  0  0  0  0
  2  3  1  0  0  0  0
  3  4  1  0  0  0  0
  4  5  1  0  0  0  0
  4  8  1  0  0  0  0
  4  9  1  0  0  0  0
  5  6  1  0  0  0  0
  6  7  2  0  0  0  0
  6  8  1  0  0  0  0
  9 10  1  0  0  0  0
M  END
> <Index>
4345

> <PropertyFieldDistance>
nan

$$$$
14317550
BBcorina  12272117083D 1   1.00000     0.00000 
CORINA 4.3.0 0026  30.10.2019
 13 15  0  0  0  0  0  0  0  0999 V2000
  -36.0173    3.5926  -44.4913 N   0  0  0  0  0  0  0  0  0  0  0  0
  -36.3933    2.1751  -44.5752 C   0  0  0  0  0  0  0  0  0  0  0  0
  -36.1059    1.6538  -45.9847 C   0  0  0  0  0  0  0  0  0  0  0  0
  -36.6116    0.2151  -46.1093 C   0  0  0  0  0  0  0  0  0  0  0  0
  -36.3242   -0.3062  -47.5187 C   0  0  0  0  0  0  0  0  0  0  0  0
  -34.8167   -0.2713  -47.7777 C   0  0  0  0  0  0  0  0  0  0  0  0
  -34.1024   -1.1537  -46.7520 C   0  0  0  0  0  0  0  0  0  0  0  0
  -34.3898   -0.6323  -45.3426 C   0  0  0  0  0  0  0  0  0  0  0  0
  -35.8973   -0.6672  -45.0836 C   0  0  0  0  0  0  0  0  0  0  0  0
  -33.8841    0.8062  -45.2180 C   0  0  0  0  0  0  0  0  0  0  0  0
  -34.5984    1.6886  -46.2437 C   0  0  0  0  0  0  0  0  0  0  0  0
  -34.3110    1.1672  -47.6531 C   0  0  0  0  0  0  0  0  0  0  0  0
  -36.3230    4.2164  -42.9288 X   0  0  0  0  0  0  0  0  0  0  0  0
  1  2  1  0  0  0  0
  1 13  1  0  0  0  0
  2  3  1  0  0  0  0
  3  4  1  0  0  0  0
  3 11  1  0  0  0  0
  4  5  1  0  0  0  0
  4  9  1  0  0  0  0
  5  6  1  0  0  0  0
  6  7  1  0  0  0  0
  6 12  1  0  0  0  0
  7  8  1  0  0  0  0
  8  9  1  0  0  0  0
  8 10  1  0  0  0  0
 10 11  1  0  0  0  0
 11 12  1  0  0  0  0
M  END
> <Index>
4347

> <PropertyFieldDistance>
nan

$$$$
2308818
BBcorina  12272117083D 1   1.00000     0.00000 
CORINA 4.3.0 0026  30.10.2019
 16 17  0  0  0  0  0  0  0  0999 V2000
  -37.0711   -1.5891  -46.6113 C   0  0  0  0  0  0  0  0  0  0  0  0
  -36.6650   -0.5119  -45.6036 C   0  0  0  0  0  0  0  0  0  0  0  0
  -35.5369    0.3378  -46.1920 C   0  0  0  0  0  0  0  0  0  0  0  0
  -35.1307    1.4149  -45.1841 C   0  0  0  0  0  0  0  0  0  0  0  0
  -36.3353    2.3075  -44.8786 C   0  0  0  0  0  0  0  0  0  0  0  0
  -37.4634    1.4579  -44.2901 C   0  0  0  0  0  0  0  0  0  0  0  0
  -37.8695    0.3807  -45.2979 C   0  0  0  0  0  0  0  0  0  0  0  0
  -35.9453    3.3417  -43.9109 N   0  0  0  0  0  0  0  0  0  0  0  0
  -37.0433    4.2898  -43.6828 C   0  0  0  0  0  0  0  0  0  0  0  0
  -36.6554    5.2624  -42.5667 C   0  0  0  0  0  0  0  0  0  0  0  0
  -35.3833    6.0132  -42.9700 C   0  0  0  0  0  0  0  0  0  0  0  0
  -34.2691    5.0006  -43.2489 C   0  0  0  0  0  0  0  0  0  0  0  0
  -34.7262    4.0356  -44.3452 C   0  0  0  0  0  0  0  0  0  0  0  0
  -34.9732    6.9060  -41.8778 N   0  0  0  0  0  0  0  0  0  0  0  0
  -33.8238    7.7300  -42.2749 C   0  0  0  0  0  0  0  0  0  0  0  0
  -34.6294    6.0186  -40.4572 X   0  0  0  0  0  0  0  0  0  0  0  0
  1  2  1  0  0  0  0
  2  3  1  0  0  0  0
  2  7  1  0  0  0  0
  3  4  1  0  0  0  0
  4  5  1  0  0  0  0
  5  6  1  0  0  0  0
  5  8  1  0  0  0  0
  6  7  1  0  0  0  0
  8  9  1  0  0  0  0
  8 13  1  0  0  0  0
  9 10  1  0  0  0  0
 10 11  1  0  0  0  0
 11 12  1  0  0  0  0
 11 14  1  0  0  0  0
 12 13  1  0  0  0  0
 14 15  1  0  0  0  0
 14 16  1  0  0  0  0
M  END
> <Index>
4369

> <PropertyFieldDistance>
nan

$$$$
2227954
BBcorina  12272117083D 1   1.00000     0.00000 
CORINA 4.3.0 0026  30.10.2019
 12 12  0  0  0  0  0  0  0  0999 V2000
  -34.8250    0.7499  -44.4314 C   0  0  0  0  0  0  0  0  0  0  0  0
  -35.5719    1.5391  -45.5086 C   0  0  0  0  0  0  0  0  0  0  0  0
  -36.2624    0.6060  -46.4089 N   0  0  0  0  0  0  0  0  0  0  0  0
  -36.5816    2.4478  -44.8563 C   0  0  0  0  0  0  0  0  0  0  0  0
  -37.7367    2.0937  -44.7501 O   0  0  0  0  0  0  0  0  0  0  0  0
  -36.2010    3.6540  -44.3909 N   0  0  0  0  0  0  0  0  0  0  0  0
  -37.1449    4.5175  -43.6634 C   0  0  0  0  0  0  0  0  0  0  0  0
  -36.4804    4.9672  -42.3571 C   0  0  0  0  0  0  0  0  0  0  0  0
  -35.2001    5.5316  -42.6503 O   0  0  0  0  0  0  0  0  0  0  0  0
  -34.2779    4.6142  -43.2430 C   0  0  0  0  0  0  0  0  0  0  0  0
  -34.8278    4.1439  -44.5898 C   0  0  0  0  0  0  0  0  0  0  0  0
  -37.3892   -0.3525  -45.5510 X   0  0  0  0  0  0  0  0  0  0  0  0
  1  2  1  0  0  0  0
  2  3  1  0  0  0  0
  2  4  1  0  0  0  0
  3 12  1  0  0  0  0
  4  5  2  0  0  0  0
  4  6  1  0  0  0  0
  6  7  1  0  0  0  0
  6 11  1  0  0  0  0
  7  8  1  0  0  0  0
  8  9  1  0  0  0  0
  9 10  1  0  0  0  0
 10 11  1  0  0  0  0
M  END
> <Index>
4370

> <PropertyFieldDistance>
nan

$$$$
2366832
BBcorina  12272117083D 1   1.00000     0.00000 
CORINA 4.3.0 0026  30.10.2019
 15 16  0  0  0  0  0  0  0  0999 V2000
  -36.3354    2.3075  -44.8787 C   0  0  0  0  0  0  0  0  0  0  0  0
  -35.9453    3.3416  -43.9110 N   0  0  0  0  0  0  0  0  0  0  0  0
  -37.0432    4.2897  -43.6828 C   0  0  0  0  0  0  0  0  0  0  0  0
  -36.6554    5.2625  -42.5667 C   0  0  0  0  0  0  0  0  0  0  0  0
  -35.3834    6.0133  -42.9700 C   0  0  0  0  0  0  0  0  0  0  0  0
  -34.2691    5.0007  -43.2489 C   0  0  0  0  0  0  0  0  0  0  0  0
  -34.7262    4.0356  -44.3451 C   0  0  0  0  0  0  0  0  0  0  0  0
  -34.9733    6.9062  -41.8781 N   0  0  0  0  0  0  0  0  0  0  0  0
  -33.7537    7.6439  -42.2313 C   0  0  0  0  0  0  0  0  0  0  0  0
  -33.2756    8.4507  -41.0220 C   0  0  0  0  0  0  0  0  0  0  0  0
  -34.3780    9.4243  -40.5959 C   0  0  0  0  0  0  0  0  0  0  0  0
  -35.6513    8.6346  -40.2802 C   0  0  0  0  0  0  0  0  0  0  0  0
  -36.0605    7.8225  -41.5110 C   0  0  0  0  0  0  0  0  0  0  0  0
  -33.9475   10.1604  -39.3998 N   0  0  0  0  0  0  0  0  0  0  0  0
  -33.5257    9.0862  -38.1379 X   0  0  0  0  0  0  0  0  0  0  0  0
  1  2  1  0  0  0  0
  2  3  1  0  0  0  0
  2  7  1  0  0  0  0
  3  4  1  0  0  0  0
  4  5  1  0  0  0  0
  5  6  1  0  0  0  0
  5  8  1  0  0  0  0
  6  7  1  0  0  0  0
  8  9  1  0  0  0  0
  8 13  1  0  0  0  0
  9 10  1  0  0  0  0
 10 11  1  0  0  0  0
 11 12  1  0  0  0  0
 11 14  1  0  0  0  0
 12 13  1  0  0  0  0
 14 15  1  0  0  0  0
M  END
> <Index>
4372

> <PropertyFieldDistance>
nan

$$$$
3066464
BBcorina  12272117083D 1   1.00000     0.00000 
CORINA 4.3.0 0026  30.10.2019
 11 11  0  0  0  0  0  0  0  0999 V2000
  -36.3900    1.5125  -45.0002 C   0  0  0  0  0  0  0  0  0  0  0  0
  -36.1734    2.9038  -45.5987 C   0  0  0  0  0  0  0  0  0  0  0  0
  -37.4098    3.3115  -46.4025 C   0  0  0  0  0  0  0  0  0  0  0  0
  -35.9508    3.8728  -44.5173 N   0  0  0  0  0  0  0  0  0  0  0  0
  -36.9614    3.7875  -43.5509 C   0  0  0  0  0  0  0  0  0  0  0  0
  -36.8535    4.9316  -42.5180 C   0  0  0  0  0  0  0  0  0  0  0  0
  -35.7239    4.6268  -41.5668 C   0  0  0  0  0  0  0  0  0  0  0  0
  -34.4370    5.2238  -41.9912 N   0  0  0  0  0  0  0  0  0  0  0  0
  -34.1778    5.1123  -43.4414 C   0  0  0  0  0  0  0  0  0  0  0  0
  -34.5786    3.7632  -43.9824 C   0  0  0  0  0  0  0  0  0  0  0  0
  -34.3135    6.8477  -41.4696 X   0  0  0  0  0  0  0  0  0  0  0  0
  1  2  1  0  0  0  0
  2  3  1  0  0  0  0
  2  4  1  0  0  0  0
  4  5  1  0  0  0  0
  4 10  1  0  0  0  0
  5  6  1  0  0  0  0
  6  7  1  0  0  0  0
  7  8  1  0  0  0  0
  8  9  1  0  0  0  0
  8 11  1  0  0  0  0
  9 10  1  0  0  0  0
M  END
> <Index>
4374

> <PropertyFieldDistance>
nan

$$$$
2227946
BBcorina  12272117083D 1   1.00000     0.00000 
CORINA 4.3.0 0026  30.10.2019
 11 11  0  0  0  0  0  0  0  0999 V2000
  -34.7189    0.8972  -44.8836 C   0  0  0  0  0  0  0  0  0  0  0  0
  -35.6551    1.6200  -45.8543 C   0  0  0  0  0  0  0  0  0  0  0  0
  -36.3535    0.6324  -46.6879 N   0  0  0  0  0  0  0  0  0  0  0  0
  -36.6645    2.4228  -45.0747 C   0  0  0  0  0  0  0  0  0  0  0  0
  -37.8490    2.1947  -45.2012 O   0  0  0  0  0  0  0  0  0  0  0  0
  -36.2510    3.3942  -44.2370 N   0  0  0  0  0  0  0  0  0  0  0  0
  -37.1237    4.2497  -43.4195 C   0  0  0  0  0  0  0  0  0  0  0  0
  -36.2133    5.2258  -42.6450 C   0  0  0  0  0  0  0  0  0  0  0  0
  -34.9168    5.2422  -43.4972 C   0  0  0  0  0  0  0  0  0  0  0  0
  -34.8483    3.7709  -43.9838 C   0  0  0  0  0  0  0  0  0  0  0  0
  -35.4686    0.2978  -48.1125 X   0  0  0  0  0  0  0  0  0  0  0  0
  1  2  1  0  0  0  0
  2  3  1  0  0  0  0
  2  4  1  0  0  0  0
  3 11  1  0  0  0  0
  4  5  2  0  0  0  0
  4  6  1  0  0  0  0
  6  7  1  0  0  0  0
  6 10  1  0  0  0  0
  7  8  1  0  0  0  0
  8  9  1  0  0  0  0
  9 10  1  0  0  0  0
M  END
> <Index>
4390

> <PropertyFieldDistance>
nan

$$$$
2385534
BBcorina  12272117083D 1   1.00000     0.00000 
CORINA 4.3.0 0026  30.10.2019
 12 13  0  0  0  0  0  0  0  0999 V2000
  -36.0192    3.9414  -44.5845 N   0  0  0  0  0  0  0  0  0  0  0  0
  -36.9723    4.0087  -43.4695 C   0  0  0  0  0  0  0  0  0  0  0  0
  -36.6793    5.2475  -42.6202 C   0  0  0  0  0  0  0  0  0  0  0  0
  -35.2461    5.1676  -42.0870 C   0  0  0  0  0  0  0  0  0  0  0  0
  -34.2770    5.0496  -43.2665 C   0  0  0  0  0  0  0  0  0  0  0  0
  -34.6396    3.8164  -44.0970 C   0  0  0  0  0  0  0  0  0  0  0  0
  -34.9404    6.3785  -41.3213 N   0  0  0  0  0  0  0  0  0  0  0  0
  -34.4999    7.5509  -41.8098 C   0  0  0  0  0  0  0  0  0  0  0  0
  -34.3477    8.3772  -40.8069 N   0  0  0  0  0  0  0  0  0  0  0  0
  -34.6796    7.7711  -39.6676 C   0  0  0  0  0  0  0  0  0  0  0  0
  -35.0438    6.5435  -39.9304 N   0  0  0  0  0  0  0  0  0  0  0  0
  -36.4110    2.6621  -45.6494 X   0  0  0  0  0  0  0  0  0  0  0  0
  1  2  1  0  0  0  0
  1  6  1  0  0  0  0
  1 12  1  0  0  0  0
  2  3  1  0  0  0  0
  3  4  1  0  0  0  0
  4  5  1  0  0  0  0
  4  7  1  0  0  0  0
  5  6  1  0  0  0  0
  7  8  1  0  0  0  0
  7 11  1  0  0  0  0
  8  9  2  0  0  0  0
  9 10  1  0  0  0  0
 10 11  2  0  0  0  0
M  END
> <Index>
4391

> <PropertyFieldDistance>
nan

$$$$
2385546
BBcorina  12272117083D 1   1.00000     0.00000 
CORINA 4.3.0 0026  30.10.2019
 12 13  0  0  0  0  0  0  0  0999 V2000
  -35.9479    3.4664  -44.1722 N   0  0  0  0  0  0  0  0  0  0  0  0
  -37.0290    4.3869  -43.7978 C   0  0  0  0  0  0  0  0  0  0  0  0
  -36.6587    5.1099  -42.5007 C   0  0  0  0  0  0  0  0  0  0  0  0
  -35.3534    5.8832  -42.7080 C   0  0  0  0  0  0  0  0  0  0  0  0
  -34.2558    4.9088  -43.1443 C   0  0  0  0  0  0  0  0  0  0  0  0
  -34.6958    4.1916  -44.4227 C   0  0  0  0  0  0  0  0  0  0  0  0
  -34.9632    6.5300  -41.4528 N   0  0  0  0  0  0  0  0  0  0  0  0
  -34.7992    7.8735  -41.2482 C   0  0  0  0  0  0  0  0  0  0  0  0
  -34.4397    8.0304  -39.9600 C   0  0  0  0  0  0  0  0  0  0  0  0
  -34.3857    6.8158  -39.3933 N   0  0  0  0  0  0  0  0  0  0  0  0
  -34.7037    5.9128  -40.2801 C   0  0  0  0  0  0  0  0  0  0  0  0
  -36.3897    2.5209  -45.5268 X   0  0  0  0  0  0  0  0  0  0  0  0
  1  2  1  0  0  0  0
  1  6  1  0  0  0  0
  1 12  1  0  0  0  0
  2  3  1  0  0  0  0
  3  4  1  0  0  0  0
  4  5  1  0  0  0  0
  4  7  1  0  0  0  0
  5  6  1  0  0  0  0
  7  8  1  0  0  0  0
  7 11  1  0  0  0  0
  8  9  2  0  0  0  0
  9 10  1  0  0  0  0
 10 11  2  0  0  0  0
M  END
> <Index>
4392

> <PropertyFieldDistance>
nan

$$$$
10963804
BBcorina  12272117083D 1   1.00000     0.00000 
CORINA 4.3.0 0026  30.10.2019
 13 14  0  0  0  0  0  0  0  0999 V2000
  -36.0191    3.9414  -44.5846 N   0  0  0  0  0  0  0  0  0  0  0  0
  -36.9723    4.0087  -43.4695 C   0  0  0  0  0  0  0  0  0  0  0  0
  -36.6793    5.2476  -42.6202 C   0  0  0  0  0  0  0  0  0  0  0  0
  -35.2462    5.1676  -42.0869 C   0  0  0  0  0  0  0  0  0  0  0  0
  -34.2770    5.0496  -43.2665 C   0  0  0  0  0  0  0  0  0  0  0  0
  -34.6396    3.8164  -44.0970 C   0  0  0  0  0  0  0  0  0  0  0  0
  -34.9316    6.4133  -41.2994 C   0  0  0  0  0  0  0  0  0  0  0  0
  -34.4833    7.5561  -41.9423 C   0  0  0  0  0  0  0  0  0  0  0  0
  -34.2071    8.6781  -41.1765 C   0  0  0  0  0  0  0  0  0  0  0  0
  -34.3795    8.6210  -39.8657 N   0  0  0  0  0  0  0  0  0  0  0  0
  -34.8078    7.5162  -39.2885 C   0  0  0  0  0  0  0  0  0  0  0  0
  -35.0804    6.4308  -39.9844 N   0  0  0  0  0  0  0  0  0  0  0  0
  -36.4110    2.6620  -45.6494 X   0  0  0  0  0  0  0  0  0  0  0  0
  1  2  1  0  0  0  0
  1  6  1  0  0  0  0
  1 13  1  0  0  0  0
  2  3  1  0  0  0  0
  3  4  1  0  0  0  0
  4  5  1  0  0  0  0
  4  7  1  0  0  0  0
  5  6  1  0  0  0  0
  7  8  2  0  0  0  0
  7 12  1  0  0  0  0
  8  9  1  0  0  0  0
  9 10  2  0  0  0  0
 10 11  1  0  0  0  0
 11 12  2  0  0  0  0
M  END
> <Index>
4405

> <PropertyFieldDistance>
nan

$$$$
2262784
BBcorina  12272117083D 1   1.00000     0.00000 
CORINA 4.3.0 0026  30.10.2019
 12 12  0  0  0  0  0  0  0  0999 V2000
  -35.6107    1.5227  -45.4871 C   0  0  0  0  0  0  0  0  0  0  0  0
  -36.6450    2.5829  -45.1038 C   0  0  0  0  0  0  0  0  0  0  0  0
  -37.0372    3.3854  -46.3460 C   0  0  0  0  0  0  0  0  0  0  0  0
  -37.8857    1.8993  -44.5255 C   0  0  0  0  0  0  0  0  0  0  0  0
  -36.0705    3.4867  -44.0982 N   0  0  0  0  0  0  0  0  0  0  0  0
  -37.0594    4.4993  -43.6688 C   0  0  0  0  0  0  0  0  0  0  0  0
  -36.7086    4.9487  -42.2728 C   0  0  0  0  0  0  0  0  0  0  0  0
  -35.8027    6.1903  -42.2754 C   0  0  0  0  0  0  0  0  0  0  0  0
  -34.7495    6.1201  -43.3138 N   0  0  0  0  0  0  0  0  0  0  0  0
  -34.1339    4.8176  -43.4352 C   0  0  0  0  0  0  0  0  0  0  0  0
  -34.8574    4.0260  -44.5431 C   0  0  0  0  0  0  0  0  0  0  0  0
  -33.5706    7.3353  -43.0739 X   0  0  0  0  0  0  0  0  0  0  0  0
  1  2  1  0  0  0  0
  2  3  1  0  0  0  0
  2  4  1  0  0  0  0
  2  5  1  0  0  0  0
  5  6  1  0  0  0  0
  5 11  1  0  0  0  0
  6  7  1  0  0  0  0
  7  8  1  0  0  0  0
  8  9  1  0  0  0  0
  9 10  1  0  0  0  0
  9 12  1  0  0  0  0
 10 11  1  0  0  0  0
M  END
> <Index>
4407

> <PropertyFieldDistance>
nan

$$$$
4819884
BBcorina  12272117083D 1   1.00000     0.00000 
CORINA 4.3.0 0026  30.10.2019
 11 11  0  0  0  0  0  0  0  0999 V2000
  -36.7882    0.7666  -46.6357 C   0  0  0  0  0  0  0  0  0  0  0  0
  -36.8285    2.1416  -45.9659 C   0  0  0  0  0  0  0  0  0  0  0  0
  -35.8425    2.1683  -44.7962 C   0  0  0  0  0  0  0  0  0  0  0  0
  -35.7902    3.5230  -44.2307 N   0  0  0  0  0  0  0  0  0  0  0  0
  -36.9268    3.7879  -43.4559 C   0  0  0  0  0  0  0  0  0  0  0  0
  -36.9843    5.2699  -43.0227 C   0  0  0  0  0  0  0  0  0  0  0  0
  -35.9970    5.4919  -41.9055 C   0  0  0  0  0  0  0  0  0  0  0  0
  -34.6714    5.9418  -42.3878 N   0  0  0  0  0  0  0  0  0  0  0  0
  -34.2064    5.2347  -43.5989 C   0  0  0  0  0  0  0  0  0  0  0  0
  -34.5068    3.7584  -43.5388 C   0  0  0  0  0  0  0  0  0  0  0  0
  -33.5040    5.8553  -41.1413 X   0  0  0  0  0  0  0  0  0  0  0  0
  1  2  1  0  0  0  0
  2  3  1  0  0  0  0
  3  4  1  0  0  0  0
  4  5  1  0  0  0  0
  4 10  1  0  0  0  0
  5  6  1  0  0  0  0
  6  7  1  0  0  0  0
  7  8  1  0  0  0  0
  8  9  1  0  0  0  0
  8 11  1  0  0  0  0
  9 10  1  0  0  0  0
M  END
> <Index>
4410

> <PropertyFieldDistance>
nan

$$$$
2367550
BBcorina  12272117083D 1   1.00000     0.00000 
CORINA 4.3.0 0026  30.10.2019
 12 13  0  0  0  0  0  0  0  0999 V2000
  -36.0191    3.9414  -44.5845 N   0  0  0  0  0  0  0  0  0  0  0  0
  -36.9723    4.0087  -43.4695 C   0  0  0  0  0  0  0  0  0  0  0  0
  -36.6793    5.2476  -42.6202 C   0  0  0  0  0  0  0  0  0  0  0  0
  -35.2462    5.1676  -42.0870 C   0  0  0  0  0  0  0  0  0  0  0  0
  -34.2770    5.0496  -43.2665 C   0  0  0  0  0  0  0  0  0  0  0  0
  -34.6396    3.8164  -44.0970 C   0  0  0  0  0  0  0  0  0  0  0  0
  -34.9316    6.4133  -41.2993 C   0  0  0  0  0  0  0  0  0  0  0  0
  -35.0407    6.5428  -40.0054 N   0  0  0  0  0  0  0  0  0  0  0  0
  -34.6765    7.7847  -39.6530 C   0  0  0  0  0  0  0  0  0  0  0  0
  -34.3285    8.4500  -40.7709 C   0  0  0  0  0  0  0  0  0  0  0  0
  -34.4845    7.5786  -41.8151 N   0  0  0  0  0  0  0  0  0  0  0  0
  -36.4111    2.6621  -45.6494 X   0  0  0  0  0  0  0  0  0  0  0  0
  1  2  1  0  0  0  0
  1  6  1  0  0  0  0
  1 12  1  0  0  0  0
  2  3  1  0  0  0  0
  3  4  1  0  0  0  0
  4  5  1  0  0  0  0
  4  7  1  0  0  0  0
  5  6  1  0  0  0  0
  7  8  2  0  0  0  0
  7 11  1  0  0  0  0
  8  9  1  0  0  0  0
  9 10  2  0  0  0  0
 10 11  1  0  0  0  0
M  END
> <Index>
4413

> <PropertyFieldDistance>
nan

$$$$
4836986
BBcorina  12272117083D 1   1.00000     0.00000 
CORINA 4.3.0 0026  30.10.2019
 14 15  0  0  0  0  0  0  0  0999 V2000
  -36.1121   -0.4268  -43.9230 Br  0  0  0  0  0  0  0  0  0  0  0  0
  -35.2392    0.4781  -45.3355 C   0  0  0  0  0  0  0  0  0  0  0  0
  -34.2024   -0.0901  -46.0561 C   0  0  0  0  0  0  0  0  0  0  0  0
  -33.6969    0.6832  -47.0185 C   0  0  0  0  0  0  0  0  0  0  0  0
  -34.5498    2.2210  -47.0487 S   0  0  0  0  0  0  0  0  0  0  0  0
  -35.5753    1.7129  -45.7132 C   0  0  0  0  0  0  0  0  0  0  0  0
  -36.6706    2.5427  -45.0944 C   0  0  0  0  0  0  0  0  0  0  0  0
  -36.1183    3.3364  -43.9885 N   0  0  0  0  0  0  0  0  0  0  0  0
  -37.0927    4.3293  -43.5148 C   0  0  0  0  0  0  0  0  0  0  0  0
  -36.5103    5.0791  -42.3143 C   0  0  0  0  0  0  0  0  0  0  0  0
  -35.2517    5.7273  -42.7086 N   0  0  0  0  0  0  0  0  0  0  0  0
  -34.2773    4.7344  -43.1823 C   0  0  0  0  0  0  0  0  0  0  0  0
  -34.8596    3.9845  -44.3827 C   0  0  0  0  0  0  0  0  0  0  0  0
  -34.6087    6.6511  -41.4213 X   0  0  0  0  0  0  0  0  0  0  0  0
  1  2  1  0  0  0  0
  2  3  1  0  0  0  0
  2  6  2  0  0  0  0
  3  4  2  0  0  0  0
  4  5  1  0  0  0  0
  5  6  1  0  0  0  0
  6  7  1  0  0  0  0
  7  8  1  0  0  0  0
  8  9  1  0  0  0  0
  8 13  1  0  0  0  0
  9 10  1  0  0  0  0
 10 11  1  0  0  0  0
 11 12  1  0  0  0  0
 11 14  1  0  0  0  0
 12 13  1  0  0  0  0
M  END
> <Index>
4418

> <PropertyFieldDistance>
nan

$$$$
2758536
BBcorina  12272117083D 1   1.00000     0.00000 
CORINA 4.3.0 0026  30.10.2019
 12 12  0  0  0  0  0  0  0  0999 V2000
  -37.6391    0.3038  -44.6210 C   0  0  0  0  0  0  0  0  0  0  0  0
  -37.4718    1.7164  -44.3299 O   0  0  0  0  0  0  0  0  0  0  0  0
  -36.2421    2.2354  -44.5065 C   0  0  0  0  0  0  0  0  0  0  0  0
  -35.3335    1.5274  -44.8933 O   0  0  0  0  0  0  0  0  0  0  0  0
  -36.0188    3.5404  -44.2541 N   0  0  0  0  0  0  0  0  0  0  0  0
  -37.1072    4.4092  -43.7859 C   0  0  0  0  0  0  0  0  0  0  0  0
  -36.6609    5.1080  -42.4978 C   0  0  0  0  0  0  0  0  0  0  0  0
  -35.3388    5.8368  -42.7493 C   0  0  0  0  0  0  0  0  0  0  0  0
  -34.2632    4.8233  -43.1467 C   0  0  0  0  0  0  0  0  0  0  0  0
  -34.6824    4.1213  -44.4422 C   0  0  0  0  0  0  0  0  0  0  0  0
  -32.9867    5.5192  -43.3571 N   0  0  0  0  0  0  0  0  0  0  0  0
  -33.1241    6.6905  -44.5952 X   0  0  0  0  0  0  0  0  0  0  0  0
  1  2  1  0  0  0  0
  2  3  1  0  0  0  0
  3  4  2  0  0  0  0
  3  5  1  0  0  0  0
  5  6  1  0  0  0  0
  5 10  1  0  0  0  0
  6  7  1  0  0  0  0
  7  8  1  0  0  0  0
  8  9  1  0  0  0  0
  9 10  1  0  0  0  0
  9 11  1  0  0  0  0
 11 12  1  0  0  0  0
M  END
> <Index>
4419

> <PropertyFieldDistance>
nan

$$$$
2562092
BBcorina  12272117083D 1   1.00000     0.00000 
CORINA 4.3.0 0026  30.10.2019
 12 12  0  0  0  0  0  0  0  0999 V2000
  -37.4579    6.2982  -42.0390 C   0  0  0  0  0  0  0  0  0  0  0  0
  -36.4762    5.1987  -42.4493 C   0  0  0  0  0  0  0  0  0  0  0  0
  -36.1823    4.2999  -41.2465 C   0  0  0  0  0  0  0  0  0  0  0  0
  -37.0879    4.3615  -43.5758 C   0  0  0  0  0  0  0  0  0  0  0  0
  -36.1107    3.3562  -44.0184 N   0  0  0  0  0  0  0  0  0  0  0  0
  -36.6796    2.4930  -45.0620 C   0  0  0  0  0  0  0  0  0  0  0  0
  -35.5716    1.6312  -45.6708 C   0  0  0  0  0  0  0  0  0  0  0  0
  -36.1404    0.7679  -46.7145 N   0  0  0  0  0  0  0  0  0  0  0  0
  -34.8745    4.0012  -44.4841 C   0  0  0  0  0  0  0  0  0  0  0  0
  -34.2849    4.8420  -43.3486 C   0  0  0  0  0  0  0  0  0  0  0  0
  -35.2596    5.7925  -42.9103 O   0  0  0  0  0  0  0  0  0  0  0  0
  -34.9329   -0.2143  -47.4227 X   0  0  0  0  0  0  0  0  0  0  0  0
  1  2  1  0  0  0  0
  2  3  1  0  0  0  0
  2  4  1  0  0  0  0
  2 11  1  0  0  0  0
  4  5  1  0  0  0  0
  5  6  1  0  0  0  0
  5  9  1  0  0  0  0
  6  7  1  0  0  0  0
  7  8  1  0  0  0  0
  8 12  1  0  0  0  0
  9 10  1  0  0  0  0
 10 11  1  0  0  0  0
M  END
> <Index>
4427

> <PropertyFieldDistance>
nan

$$$$
2560866
BBcorina  12272117083D 1   1.00000     0.00000 
CORINA 4.3.0 0026  30.10.2019
 11 11  0  0  0  0  0  0  0  0999 V2000
  -37.4864    6.1808  -41.9276 C   0  0  0  0  0  0  0  0  0  0  0  0
  -36.4911    5.1194  -42.4006 C   0  0  0  0  0  0  0  0  0  0  0  0
  -37.0773    4.3643  -43.5965 C   0  0  0  0  0  0  0  0  0  0  0  0
  -36.0861    3.3991  -44.0937 N   0  0  0  0  0  0  0  0  0  0  0  0
  -36.6307    2.6122  -45.2083 C   0  0  0  0  0  0  0  0  0  0  0  0
  -35.6729    1.4660  -45.5392 C   0  0  0  0  0  0  0  0  0  0  0  0
  -36.2175    0.6791  -46.6538 N   0  0  0  0  0  0  0  0  0  0  0  0
  -34.8456    4.0825  -44.4879 C   0  0  0  0  0  0  0  0  0  0  0  0
  -34.2818    4.8403  -43.2829 C   0  0  0  0  0  0  0  0  0  0  0  0
  -35.2700    5.7512  -42.7941 O   0  0  0  0  0  0  0  0  0  0  0  0
  -35.1754   -0.6155  -47.0567 X   0  0  0  0  0  0  0  0  0  0  0  0
  1  2  1  0  0  0  0
  2  3  1  0  0  0  0
  2 10  1  0  0  0  0
  3  4  1  0  0  0  0
  4  5  1  0  0  0  0
  4  8  1  0  0  0  0
  5  6  1  0  0  0  0
  6  7  1  0  0  0  0
  7 11  1  0  0  0  0
  8  9  1  0  0  0  0
  9 10  1  0  0  0  0
M  END
> <Index>
4428

> <PropertyFieldDistance>
nan

$$$$
5581176
BBcorina  12272117083D 1   1.00000     0.00000 
CORINA 4.3.0 0026  30.10.2019
 15 16  0  0  0  0  0  0  0  0999 V2000
  -37.5307   -0.5582  -47.6555 C   0  0  0  0  0  0  0  0  0  0  0  0
  -37.0725    0.4690  -46.6525 C   0  0  0  0  0  0  0  0  0  0  0  0
  -35.7927    0.4051  -46.1180 C   0  0  0  0  0  0  0  0  0  0  0  0
  -35.4119    1.3673  -45.1999 C   0  0  0  0  0  0  0  0  0  0  0  0
  -36.3188    2.3606  -44.8454 C   0  0  0  0  0  0  0  0  0  0  0  0
  -37.5327    2.3845  -45.3741 N   0  0  0  0  0  0  0  0  0  0  0  0
  -37.9214    1.4830  -46.2556 C   0  0  0  0  0  0  0  0  0  0  0  0
  -35.9495    3.3334  -43.9238 N   0  0  0  0  0  0  0  0  0  0  0  0
  -37.0465    4.2815  -43.6913 C   0  0  0  0  0  0  0  0  0  0  0  0
  -36.6587    5.2472  -42.5693 C   0  0  0  0  0  0  0  0  0  0  0  0
  -35.3853    5.9989  -42.9670 C   0  0  0  0  0  0  0  0  0  0  0  0
  -34.2720    4.9866  -43.2505 C   0  0  0  0  0  0  0  0  0  0  0  0
  -34.7291    4.0284  -44.3527 C   0  0  0  0  0  0  0  0  0  0  0  0
  -34.9753    6.8850  -41.8694 N   0  0  0  0  0  0  0  0  0  0  0  0
  -34.6617    5.9919  -40.4453 X   0  0  0  0  0  0  0  0  0  0  0  0
  1  2  1  0  0  0  0
  2  3  2  0  0  0  0
  2  7  1  0  0  0  0
  3  4  1  0  0  0  0
  4  5  2  0  0  0  0
  5  6  1  0  0  0  0
  5  8  1  0  0  0  0
  6  7  2  0  0  0  0
  8  9  1  0  0  0  0
  8 13  1  0  0  0  0
  9 10  1  0  0  0  0
 10 11  1  0  0  0  0
 11 12  1  0  0  0  0
 11 14  1  0  0  0  0
 12 13  1  0  0  0  0
 14 15  1  0  0  0  0
M  END
> <Index>
4429

> <PropertyFieldDistance>
nan

$$$$
2308280
BBcorina  12272117083D 1   1.00000     0.00000 
CORINA 4.3.0 0026  30.10.2019
 11 11  0  0  0  0  0  0  0  0999 V2000
  -31.5507    6.2652  -40.0615 C   0  0  0  0  0  0  0  0  0  0  0  0
  -32.4885    5.3963  -40.9022 C   0  0  0  0  0  0  0  0  0  0  0  0
  -33.7103    6.2182  -41.3172 C   0  0  0  0  0  0  0  0  0  0  0  0
  -34.6481    5.3494  -42.1577 C   0  0  0  0  0  0  0  0  0  0  0  0
  -35.8995    6.1212  -42.4773 C   0  0  0  0  0  0  0  0  0  0  0  0
  -37.1497    5.2254  -42.5909 C   0  0  0  0  0  0  0  0  0  0  0  0
  -36.8627    3.9131  -43.3455 C   0  0  0  0  0  0  0  0  0  0  0  0
  -36.0144    4.1261  -44.4928 N   0  0  0  0  0  0  0  0  0  0  0  0
  -34.6116    3.8364  -44.1284 C   0  0  0  0  0  0  0  0  0  0  0  0
  -33.9488    4.9626  -43.4801 C   0  0  0  0  0  0  0  0  0  0  0  0
  -36.5161    3.1624  -45.8133 X   0  0  0  0  0  0  0  0  0  0  0  0
  1  2  1  0  0  0  0
  2  3  1  0  0  0  0
  3  4  1  0  0  0  0
  4  5  1  0  0  0  0
  4 10  1  0  0  0  0
  5  6  1  0  0  0  0
  6  7  1  0  0  0  0
  7  8  1  0  0  0  0
  8  9  1  0  0  0  0
  8 11  1  0  0  0  0
  9 10  1  0  0  0  0
M  END
> <Index>
4438

> <PropertyFieldDistance>
nan

$$$$
4836988
BBcorina  12272117083D 1   1.00000     0.00000 
CORINA 4.3.0 0026  30.10.2019
 12 12  0  0  0  0  0  0  0  0999 V2000
  -36.0876    0.6569  -46.6143 C   0  0  0  0  0  0  0  0  0  0  0  0
  -35.7599    2.0500  -46.0729 C   0  0  0  0  0  0  0  0  0  0  0  0
  -36.1988    3.1077  -47.0877 C   0  0  0  0  0  0  0  0  0  0  0  0
  -36.5009    2.2714  -44.7528 C   0  0  0  0  0  0  0  0  0  0  0  0
  -36.1242    3.5762  -44.1927 N   0  0  0  0  0  0  0  0  0  0  0  0
  -37.0299    3.9777  -43.2023 C   0  0  0  0  0  0  0  0  0  0  0  0
  -36.7654    5.4307  -42.7481 C   0  0  0  0  0  0  0  0  0  0  0  0
  -35.5555    5.4497  -41.8492 C   0  0  0  0  0  0  0  0  0  0  0  0
  -34.2959    5.7122  -42.5822 N   0  0  0  0  0  0  0  0  0  0  0  0
  -34.1960    4.9959  -43.8706 C   0  0  0  0  0  0  0  0  0  0  0  0
  -34.7092    3.5819  -43.7696 C   0  0  0  0  0  0  0  0  0  0  0  0
  -32.9355    5.3934  -41.5966 X   0  0  0  0  0  0  0  0  0  0  0  0
  1  2  1  0  0  0  0
  2  3  1  0  0  0  0
  2  4  1  0  0  0  0
  4  5  1  0  0  0  0
  5  6  1  0  0  0  0
  5 11  1  0  0  0  0
  6  7  1  0  0  0  0
  7  8  1  0  0  0  0
  8  9  1  0  0  0  0
  9 10  1  0  0  0  0
  9 12  1  0  0  0  0
 10 11  1  0  0  0  0
M  END
> <Index>
4441

> <PropertyFieldDistance>
nan

$$$$
5581144
BBcorina  12272117083D 1   1.00000     0.00000 
CORINA 4.3.0 0026  30.10.2019
 10 10  0  0  0  0  0  0  0  0999 V2000
  -36.9913    0.5182  -48.4769 O   0  0  0  0  0  0  0  0  0  0  0  0
  -36.3243   -0.3061  -47.5188 C   0  0  0  0  0  0  0  0  0  0  0  0
  -34.8168   -0.2712  -47.7779 C   0  0  0  0  0  0  0  0  0  0  0  0
  -34.3109    1.1674  -47.6532 C   0  0  0  0  0  0  0  0  0  0  0  0
  -34.5985    1.6886  -46.2438 C   0  0  0  0  0  0  0  0  0  0  0  0
  -36.1059    1.6538  -45.9847 C   0  0  0  0  0  0  0  0  0  0  0  0
  -36.3933    2.1751  -44.5752 C   0  0  0  0  0  0  0  0  0  0  0  0
  -36.0173    3.5927  -44.4913 N   0  0  0  0  0  0  0  0  0  0  0  0
  -36.6118    0.2152  -46.1094 C   0  0  0  0  0  0  0  0  0  0  0  0
  -36.3229    4.2162  -42.9287 X   0  0  0  0  0  0  0  0  0  0  0  0
  1  2  1  0  0  0  0
  2  3  1  0  0  0  0
  2  9  1  0  0  0  0
  3  4  1  0  0  0  0
  4  5  1  0  0  0  0
  5  6  1  0  0  0  0
  6  7  1  0  0  0  0
  6  9  1  0  0  0  0
  7  8  1  0  0  0  0
  8 10  1  0  0  0  0
M  END
> <Index>
4442

> <PropertyFieldDistance>
nan

$$$$
5359692
BBcorina  12272117083D 1   1.00000     0.00000 
CORINA 4.3.0 0026  30.10.2019
 12 12  0  0  0  0  0  0  0  0999 V2000
  -36.1633    0.7480  -46.7831 C   0  0  0  0  0  0  0  0  0  0  0  0
  -35.5948    1.5760  -45.6290 C   0  0  0  0  0  0  0  0  0  0  0  0
  -35.1544    0.6421  -44.4999 C   0  0  0  0  0  0  0  0  0  0  0  0
  -34.0399   -0.1951  -44.9635 N   0  0  0  0  0  0  0  0  0  0  0  0
  -36.6699    2.5326  -45.1095 C   0  0  0  0  0  0  0  0  0  0  0  0
  -36.1059    3.3704  -44.0427 N   0  0  0  0  0  0  0  0  0  0  0  0
  -37.0852    4.3645  -43.5802 C   0  0  0  0  0  0  0  0  0  0  0  0
  -36.4786    5.1740  -42.4311 C   0  0  0  0  0  0  0  0  0  0  0  0
  -35.2601    5.7791  -42.8722 O   0  0  0  0  0  0  0  0  0  0  0  0
  -34.2834    4.8397  -43.3292 C   0  0  0  0  0  0  0  0  0  0  0  0
  -34.8677    4.0266  -44.4873 C   0  0  0  0  0  0  0  0  0  0  0  0
  -33.5157   -1.2562  -43.7292 X   0  0  0  0  0  0  0  0  0  0  0  0
  1  2  1  0  0  0  0
  2  3  1  0  0  0  0
  2  5  1  0  0  0  0
  3  4  1  0  0  0  0
  4 12  1  0  0  0  0
  5  6  1  0  0  0  0
  6  7  1  0  0  0  0
  6 11  1  0  0  0  0
  7  8  1  0  0  0  0
  8  9  1  0  0  0  0
  9 10  1  0  0  0  0
 10 11  1  0  0  0  0
M  END
> <Index>
4443

> <PropertyFieldDistance>
nan

$$$$
2263538
BBcorina  12272117083D 1   1.00000     0.00000 
CORINA 4.3.0 0026  30.10.2019
 14 14  0  0  0  0  0  0  0  0999 V2000
  -37.3132    0.5860  -46.8514 F   0  0  0  0  0  0  0  0  0  0  0  0
  -36.2406    0.2933  -46.0023 C   0  0  0  0  0  0  0  0  0  0  0  0
  -35.3126   -0.5036  -46.6810 F   0  0  0  0  0  0  0  0  0  0  0  0
  -36.7102   -0.3931  -44.8773 F   0  0  0  0  0  0  0  0  0  0  0  0
  -35.5689    1.5954  -45.5616 C   0  0  0  0  0  0  0  0  0  0  0  0
  -36.5686    2.4539  -44.8304 C   0  0  0  0  0  0  0  0  0  0  0  0
  -37.7063    2.0628  -44.6770 O   0  0  0  0  0  0  0  0  0  0  0  0
  -36.1985    3.6564  -44.3471 N   0  0  0  0  0  0  0  0  0  0  0  0
  -37.1582    4.5100  -43.6306 C   0  0  0  0  0  0  0  0  0  0  0  0
  -36.5301    4.9379  -42.3000 C   0  0  0  0  0  0  0  0  0  0  0  0
  -35.2212    5.5539  -42.5557 N   0  0  0  0  0  0  0  0  0  0  0  0
  -34.2878    4.5919  -43.1565 C   0  0  0  0  0  0  0  0  0  0  0  0
  -34.8224    4.1471  -44.5169 C   0  0  0  0  0  0  0  0  0  0  0  0
  -34.5707    6.2272  -41.1247 X   0  0  0  0  0  0  0  0  0  0  0  0
  1  2  1  0  0  0  0
  2  3  1  0  0  0  0
  2  4  1  0  0  0  0
  2  5  1  0  0  0  0
  5  6  1  0  0  0  0
  6  7  2  0  0  0  0
  6  8  1  0  0  0  0
  8  9  1  0  0  0  0
  8 13  1  0  0  0  0
  9 10  1  0  0  0  0
 10 11  1  0  0  0  0
 11 12  1  0  0  0  0
 11 14  1  0  0  0  0
 12 13  1  0  0  0  0
M  END
> <Index>
4444

> <PropertyFieldDistance>
nan

$$$$
16495168
BBcorina  12272117083D 1   1.00000     0.00000 
CORINA 4.3.0 0026  30.10.2019
 10 10  0  0  0  0  0  0  0  0999 V2000
  -33.9718    7.7943  -42.1645 N   0  0  0  0  0  0  0  0  0  0  0  0
  -35.0452    6.8854  -41.7404 C   0  0  0  0  0  0  0  0  0  0  0  0
  -35.4241    5.9661  -42.9032 C   0  0  0  0  0  0  0  0  0  0  0  0
  -36.6104    5.0831  -42.4978 C   0  0  0  0  0  0  0  0  0  0  0  0
  -37.0858    4.3074  -43.7271 C   0  0  0  0  0  0  0  0  0  0  0  0
  -35.9635    3.6396  -44.3741 N   0  0  0  0  0  0  0  0  0  0  0  0
  -34.6862    3.9752  -44.1895 C   0  0  0  0  0  0  0  0  0  0  0  0
  -33.8386    3.3735  -44.8142 O   0  0  0  0  0  0  0  0  0  0  0  0
  -34.2413    5.0583  -43.2491 C   0  0  0  0  0  0  0  0  0  0  0  0
  -33.5170    8.8417  -40.8916 X   0  0  0  0  0  0  0  0  0  0  0  0
  1  2  1  0  0  0  0
  1 10  1  0  0  0  0
  2  3  1  0  0  0  0
  3  4  1  0  0  0  0
  3  9  1  0  0  0  0
  4  5  1  0  0  0  0
  5  6  1  0  0  0  0
  6  7  1  0  0  0  0
  7  8  2  0  0  0  0
  7  9  1  0  0  0  0
M  END
> <Index>
4462

> <PropertyFieldDistance>
nan

$$$$
2335960
BBcorina  12272117083D 1   1.00000     0.00000 
CORINA 4.3.0 0026  30.10.2019
 11 12  0  0  0  0  0  0  0  0999 V2000
  -35.8754    3.5374  -44.1698 N   0  0  0  0  0  0  0  0  0  0  0  0
  -37.0933    4.1595  -43.6496 C   0  0  0  0  0  0  0  0  0  0  0  0
  -36.8750    5.2264  -42.5858 C   0  0  0  0  0  0  0  0  0  0  0  0
  -35.7972    4.7684  -41.5835 C   0  0  0  0  0  0  0  0  0  0  0  0
  -34.5251    5.2483  -42.0602 N   0  0  0  0  0  0  0  0  0  0  0  0
  -33.4363    5.4593  -41.0987 C   0  0  0  0  0  0  0  0  0  0  0  0
  -32.2364    5.8641  -41.9998 C   0  0  0  0  0  0  0  0  0  0  0  0
  -32.5876    5.3163  -43.4093 C   0  0  0  0  0  0  0  0  0  0  0  0
  -33.9356    4.6157  -43.2023 C   0  0  0  0  0  0  0  0  0  0  0  0
  -34.8081    4.5247  -44.4302 C   0  0  0  0  0  0  0  0  0  0  0  0
  -36.2093    2.6123  -45.5687 X   0  0  0  0  0  0  0  0  0  0  0  0
  1  2  1  0  0  0  0
  1 10  1  0  0  0  0
  1 11  1  0  0  0  0
  2  3  1  0  0  0  0
  3  4  1  0  0  0  0
  4  5  1  0  0  0  0
  5  6  1  0  0  0  0
  5  9  1  0  0  0  0
  6  7  1  0  0  0  0
  7  8  1  0  0  0  0
  8  9  1  0  0  0  0
  9 10  1  0  0  0  0
M  END
> <Index>
4469

> <PropertyFieldDistance>
nan

$$$$
4275282
BBcorina  12272117083D 1   1.00000     0.00000 
CORINA 4.3.0 0026  30.10.2019
 10 10  0  0  0  0  0  0  0  0999 V2000
  -32.6190    6.8688  -42.9533 N   0  0  0  0  0  0  0  0  0  0  0  0
  -33.1424    5.8892  -43.9148 C   0  0  0  0  0  0  0  0  0  0  0  0
  -34.2413    5.0584  -43.2492 C   0  0  0  0  0  0  0  0  0  0  0  0
  -35.4255    5.9647  -42.9039 C   0  0  0  0  0  0  0  0  0  0  0  0
  -36.6104    5.0831  -42.4979 C   0  0  0  0  0  0  0  0  0  0  0  0
  -37.0858    4.3073  -43.7269 C   0  0  0  0  0  0  0  0  0  0  0  0
  -35.9635    3.6397  -44.3743 N   0  0  0  0  0  0  0  0  0  0  0  0
  -34.6862    3.9751  -44.1894 C   0  0  0  0  0  0  0  0  0  0  0  0
  -33.8385    3.3734  -44.8140 O   0  0  0  0  0  0  0  0  0  0  0  0
  -31.4893    7.9147  -43.6976 X   0  0  0  0  0  0  0  0  0  0  0  0
  1  2  1  0  0  0  0
  1 10  1  0  0  0  0
  2  3  1  0  0  0  0
  3  4  1  0  0  0  0
  3  8  1  0  0  0  0
  4  5  1  0  0  0  0
  5  6  1  0  0  0  0
  6  7  1  0  0  0  0
  7  8  1  0  0  0  0
  8  9  2  0  0  0  0
M  END
> <Index>
4471

> <PropertyFieldDistance>
nan

$$$$
2496416
BBcorina  12272117083D 1   1.00000     0.00000 
CORINA 4.3.0 0026  30.10.2019
 16 17  0  0  0  0  0  0  0  0999 V2000
  -36.4280    2.6263  -45.2586 C   0  0  0  0  0  0  0  0  0  0  0  0
  -35.9862    3.2985  -44.0294 N   0  0  0  0  0  0  0  0  0  0  0  0
  -37.0076    4.2384  -43.5469 C   0  0  0  0  0  0  0  0  0  0  0  0
  -36.5444    4.8573  -42.2260 C   0  0  0  0  0  0  0  0  0  0  0  0
  -35.2596    5.5403  -42.4320 N   0  0  0  0  0  0  0  0  0  0  0  0
  -34.2382    4.6003  -42.9145 C   0  0  0  0  0  0  0  0  0  0  0  0
  -34.7014    3.9815  -44.2354 C   0  0  0  0  0  0  0  0  0  0  0  0
  -34.8383    6.1813  -41.2599 C   0  0  0  0  0  0  0  0  0  0  0  0
  -33.7058    5.7347  -40.5933 C   0  0  0  0  0  0  0  0  0  0  0  0
  -33.2902    6.3668  -39.4373 C   0  0  0  0  0  0  0  0  0  0  0  0
  -34.0052    7.4486  -38.9417 C   0  0  0  0  0  0  0  0  0  0  0  0
  -33.5839    8.0885  -37.7700 N   0  0  0  0  0  0  0  0  0  0  0  0
  -35.1389    7.8958  -39.6079 C   0  0  0  0  0  0  0  0  0  0  0  0
  -35.5510    7.2681  -40.7675 C   0  0  0  0  0  0  0  0  0  0  0  0
  -36.9635    7.8315  -41.6050 Cl  0  0  0  0  0  0  0  0  0  0  0  0
  -34.4647    9.4210  -37.1594 X   0  0  0  0  0  0  0  0  0  0  0  0
  1  2  1  0  0  0  0
  2  3  1  0  0  0  0
  2  7  1  0  0  0  0
  3  4  1  0  0  0  0
  4  5  1  0  0  0  0
  5  6  1  0  0  0  0
  5  8  1  0  0  0  0
  6  7  1  0  0  0  0
  8  9  2  0  0  0  0
  8 14  1  0  0  0  0
  9 10  1  0  0  0  0
 10 11  2  0  0  0  0
 11 12  1  0  0  0  0
 11 13  1  0  0  0  0
 12 16  1  0  0  0  0
 13 14  2  0  0  0  0
 14 15  1  0  0  0  0
M  END
> <Index>
4475

> <PropertyFieldDistance>
nan

$$$$
3218934
BBcorina  12272117083D 1   1.00000     0.00000 
CORINA 4.3.0 0026  30.10.2019
 10 10  0  0  0  0  0  0  0  0999 V2000
  -35.4012   -0.4037  -47.0900 C   0  0  0  0  0  0  0  0  0  0  0  0
  -36.1814    0.2428  -46.0265 N   0  0  0  0  0  0  0  0  0  0  0  0
  -35.7643    1.6392  -45.8420 C   0  0  0  0  0  0  0  0  0  0  0  0
  -36.5974    2.2775  -44.7288 C   0  0  0  0  0  0  0  0  0  0  0  0
  -36.1803    3.6739  -44.5443 N   0  0  0  0  0  0  0  0  0  0  0  0
  -37.1113    4.3902  -43.6532 C   0  0  0  0  0  0  0  0  0  0  0  0
  -36.2803    4.9534  -42.4813 C   0  0  0  0  0  0  0  0  0  0  0  0
  -34.8447    5.0110  -43.0666 C   0  0  0  0  0  0  0  0  0  0  0  0
  -34.8222    3.7491  -43.9647 C   0  0  0  0  0  0  0  0  0  0  0  0
  -37.8578    0.1414  -46.3483 X   0  0  0  0  0  0  0  0  0  0  0  0
  1  2  1  0  0  0  0
  2  3  1  0  0  0  0
  2 10  1  0  0  0  0
  3  4  1  0  0  0  0
  4  5  1  0  0  0  0
  5  6  1  0  0  0  0
  5  9  1  0  0  0  0
  6  7  1  0  0  0  0
  7  8  1  0  0  0  0
  8  9  1  0  0  0  0
M  END
> <Index>
4477

> <PropertyFieldDistance>
nan

$$$$
4836990
BBcorina  12272117083D 1   1.00000     0.00000 
CORINA 4.3.0 0026  30.10.2019
 12 12  0  0  0  0  0  0  0  0999 V2000
  -36.3971    2.8674  -46.1790 C   0  0  0  0  0  0  0  0  0  0  0  0
  -36.2307    2.0758  -44.8803 C   0  0  0  0  0  0  0  0  0  0  0  0
  -37.5396    1.3554  -44.5509 C   0  0  0  0  0  0  0  0  0  0  0  0
  -37.4173    0.6892  -43.2473 N   0  0  0  0  0  0  0  0  0  0  0  0
  -35.8891    2.9952  -43.7867 N   0  0  0  0  0  0  0  0  0  0  0  0
  -36.9444    3.9997  -43.5943 C   0  0  0  0  0  0  0  0  0  0  0  0
  -36.5891    4.8863  -42.3984 C   0  0  0  0  0  0  0  0  0  0  0  0
  -35.2902    5.5304  -42.6382 N   0  0  0  0  0  0  0  0  0  0  0  0
  -34.9486    6.4499  -41.5446 C   0  0  0  0  0  0  0  0  0  0  0  0
  -34.2349    4.5259  -42.8306 C   0  0  0  0  0  0  0  0  0  0  0  0
  -34.5903    3.6394  -44.0266 C   0  0  0  0  0  0  0  0  0  0  0  0
  -38.8619   -0.1300  -42.8397 X   0  0  0  0  0  0  0  0  0  0  0  0
  1  2  1  0  0  0  0
  2  3  1  0  0  0  0
  2  5  1  0  0  0  0
  3  4  1  0  0  0  0
  4 12  1  0  0  0  0
  5  6  1  0  0  0  0
  5 11  1  0  0  0  0
  6  7  1  0  0  0  0
  7  8  1  0  0  0  0
  8  9  1  0  0  0  0
  8 10  1  0  0  0  0
 10 11  1  0  0  0  0
M  END
> <Index>
4478

> <PropertyFieldDistance>
nan

$$$$
12058644
BBcorina  12272117083D 1   1.00000     0.00000 
CORINA 4.3.0 0026  30.10.2019
 12 12  0  0  0  0  0  0  0  0999 V2000
  -36.2944    0.5864  -46.6152 C   0  0  0  0  0  0  0  0  0  0  0  0
  -35.7987    1.9261  -46.0674 C   0  0  0  0  0  0  0  0  0  0  0  0
  -36.5188    2.2380  -44.7539 C   0  0  0  0  0  0  0  0  0  0  0  0
  -36.1324    3.5770  -44.2896 N   0  0  0  0  0  0  0  0  0  0  0  0
  -36.9749    4.0080  -43.1667 C   0  0  0  0  0  0  0  0  0  0  0  0
  -36.6429    5.4576  -42.8056 C   0  0  0  0  0  0  0  0  0  0  0  0
  -35.1631    5.5577  -42.4252 C   0  0  0  0  0  0  0  0  0  0  0  0
  -34.8096    7.0148  -42.1205 C   0  0  0  0  0  0  0  0  0  0  0  0
  -34.3091    5.0575  -43.5937 C   0  0  0  0  0  0  0  0  0  0  0  0
  -34.7087    3.6195  -43.9322 C   0  0  0  0  0  0  0  0  0  0  0  0
  -36.0784    2.9879  -47.0432 N   0  0  0  0  0  0  0  0  0  0  0  0
  -34.7719    3.1818  -48.1293 X   0  0  0  0  0  0  0  0  0  0  0  0
  1  2  1  0  0  0  0
  2  3  1  0  0  0  0
  2 11  1  0  0  0  0
  3  4  1  0  0  0  0
  4  5  1  0  0  0  0
  4 10  1  0  0  0  0
  5  6  1  0  0  0  0
  6  7  1  0  0  0  0
  7  8  1  0  0  0  0
  7  9  1  0  0  0  0
  9 10  1  0  0  0  0
 11 12  1  0  0  0  0
M  END
> <Index>
4481

> <PropertyFieldDistance>
nan

$$$$
17547522
BBcorina  12272117083D 1   1.00000     0.00000 
CORINA 4.3.0 0026  30.10.2019
  8  8  0  0  0  0  0  0  0  0999 V2000
  -32.7331    5.2519  -42.1203 O   0  0  0  0  0  0  0  0  0  0  0  0
  -34.1042    5.6523  -42.1633 C   0  0  0  0  0  0  0  0  0  0  0  0
  -34.9803    4.4380  -42.4781 C   0  0  0  0  0  0  0  0  0  0  0  0
  -36.4720    4.8297  -42.4412 C   0  0  0  0  0  0  0  0  0  0  0  0
  -36.9954    4.5500  -43.8664 C   0  0  0  0  0  0  0  0  0  0  0  0
  -36.0642    3.5302  -44.4138 N   0  0  0  0  0  0  0  0  0  0  0  0
  -34.7261    3.9531  -43.9215 C   0  0  0  0  0  0  0  0  0  0  0  0
  -36.1112    3.5122  -46.1231 X   0  0  0  0  0  0  0  0  0  0  0  0
  1  2  1  0  0  0  0
  2  3  1  0  0  0  0
  3  4  1  0  0  0  0
  3  7  1  0  0  0  0
  4  5  1  0  0  0  0
  5  6  1  0  0  0  0
  6  7  1  0  0  0  0
  6  8  1  0  0  0  0
M  END
> <Index>
4512

> <PropertyFieldDistance>
nan

$$$$
2366232
BBcorina  12272117083D 1   1.00000     0.00000 
CORINA 4.3.0 0026  30.10.2019
 11 11  0  0  0  0  0  0  0  0999 V2000
  -34.9598    7.6978  -39.2285 C   0  0  0  0  0  0  0  0  0  0  0  0
  -35.2754    6.4530  -40.0172 C   0  0  0  0  0  0  0  0  0  0  0  0
  -35.8316    5.5191  -39.4793 O   0  0  0  0  0  0  0  0  0  0  0  0
  -34.9395    6.3776  -41.3202 N   0  0  0  0  0  0  0  0  0  0  0  0
  -35.2462    5.1675  -42.0868 C   0  0  0  0  0  0  0  0  0  0  0  0
  -36.6793    5.2476  -42.6203 C   0  0  0  0  0  0  0  0  0  0  0  0
  -36.9723    4.0086  -43.4694 C   0  0  0  0  0  0  0  0  0  0  0  0
  -36.0191    3.9414  -44.5845 N   0  0  0  0  0  0  0  0  0  0  0  0
  -34.6396    3.8164  -44.0971 C   0  0  0  0  0  0  0  0  0  0  0  0
  -34.2769    5.0496  -43.2664 C   0  0  0  0  0  0  0  0  0  0  0  0
  -36.4111    2.6624  -45.6495 X   0  0  0  0  0  0  0  0  0  0  0  0
  1  2  1  0  0  0  0
  2  3  2  0  0  0  0
  2  4  1  0  0  0  0
  4  5  1  0  0  0  0
  5  6  1  0  0  0  0
  5 10  1  0  0  0  0
  6  7  1  0  0  0  0
  7  8  1  0  0  0  0
  8  9  1  0  0  0  0
  8 11  1  0  0  0  0
  9 10  1  0  0  0  0
M  END
> <Index>
4522

> <PropertyFieldDistance>
nan

$$$$
2391618
BBcorina  12272117083D 1   1.00000     0.00000 
CORINA 4.3.0 0026  30.10.2019
 12 12  0  0  0  0  0  0  0  0999 V2000
  -35.1549   -0.0756  -47.3893 N   0  0  0  0  0  0  0  0  0  0  0  0
  -36.0711    0.6525  -46.6848 N   0  0  0  0  0  0  0  0  0  0  0  0
  -35.6591    1.6249  -45.8473 C   0  0  0  0  0  0  0  0  0  0  0  0
  -34.4743    1.8535  -45.7191 O   0  0  0  0  0  0  0  0  0  0  0  0
  -36.6615    2.4214  -45.0764 C   0  0  0  0  0  0  0  0  0  0  0  0
  -37.8463    2.1928  -45.2047 O   0  0  0  0  0  0  0  0  0  0  0  0
  -36.2496    3.3937  -44.2390 N   0  0  0  0  0  0  0  0  0  0  0  0
  -37.1238    4.2496  -43.4236 C   0  0  0  0  0  0  0  0  0  0  0  0
  -36.2145    5.2228  -42.6441 C   0  0  0  0  0  0  0  0  0  0  0  0
  -34.9147    5.2380  -43.4913 C   0  0  0  0  0  0  0  0  0  0  0  0
  -34.8474    3.7709  -43.9839 C   0  0  0  0  0  0  0  0  0  0  0  0
  -35.3599   -1.7506  -47.1131 X   0  0  0  0  0  0  0  0  0  0  0  0
  1  2  1  0  0  0  0
  1 12  1  0  0  0  0
  2  3  1  0  0  0  0
  3  4  2  0  0  0  0
  3  5  1  0  0  0  0
  5  6  2  0  0  0  0
  5  7  1  0  0  0  0
  7  8  1  0  0  0  0
  7 11  1  0  0  0  0
  8  9  1  0  0  0  0
  9 10  1  0  0  0  0
 10 11  1  0  0  0  0
M  END
> <Index>
4550

> <PropertyFieldDistance>
nan

$$$$
2309000
BBcorina  12272117083D 1   1.00000     0.00000 
CORINA 4.3.0 0026  30.10.2019
 10 10  0  0  0  0  0  0  0  0999 V2000
  -36.3490    2.3378  -44.9329 C   0  0  0  0  0  0  0  0  0  0  0  0
  -36.0415    3.6587  -44.3681 N   0  0  0  0  0  0  0  0  0  0  0  0
  -36.9551    3.9850  -43.2636 C   0  0  0  0  0  0  0  0  0  0  0  0
  -36.6388    5.3903  -42.7450 C   0  0  0  0  0  0  0  0  0  0  0  0
  -35.2663    5.4486  -42.3476 O   0  0  0  0  0  0  0  0  0  0  0  0
  -34.3486    5.1369  -43.3992 C   0  0  0  0  0  0  0  0  0  0  0  0
  -32.9168    5.1943  -42.8629 C   0  0  0  0  0  0  0  0  0  0  0  0
  -32.6364    6.5454  -42.3592 N   0  0  0  0  0  0  0  0  0  0  0  0
  -34.6417    3.7290  -43.9244 C   0  0  0  0  0  0  0  0  0  0  0  0
  -31.0427    6.6536  -41.7490 X   0  0  0  0  0  0  0  0  0  0  0  0
  1  2  1  0  0  0  0
  2  3  1  0  0  0  0
  2  9  1  0  0  0  0
  3  4  1  0  0  0  0
  4  5  1  0  0  0  0
  5  6  1  0  0  0  0
  6  7  1  0  0  0  0
  6  9  1  0  0  0  0
  7  8  1  0  0  0  0
  8 10  1  0  0  0  0
M  END
> <Index>
4569

> <PropertyFieldDistance>
nan

$$$$
2309080
BBcorina  12272117083D 1   1.00000     0.00000 
CORINA 4.3.0 0026  30.10.2019
 12 13  0  0  0  0  0  0  0  0999 V2000
  -40.1034    5.0713  -41.5991 N   0  0  0  0  0  0  0  0  0  0  0  0
  -39.3338    4.7897  -42.8181 C   0  0  0  0  0  0  0  0  0  0  0  0
  -37.8537    4.6353  -42.4626 C   0  0  0  0  0  0  0  0  0  0  0  0
  -37.0544    4.3408  -43.7429 C   0  0  0  0  0  0  0  0  0  0  0  0
  -35.6443    4.3348  -43.3852 N   0  0  0  0  0  0  0  0  0  0  0  0
  -34.6711    4.0140  -44.4268 C   0  0  0  0  0  0  0  0  0  0  0  0
  -33.3637    4.7387  -44.0202 C   0  0  0  0  0  0  0  0  0  0  0  0
  -33.7345    5.5521  -42.7487 C   0  0  0  0  0  0  0  0  0  0  0  0
  -35.2603    5.6857  -42.8885 C   0  0  0  0  0  0  0  0  0  0  0  0
  -35.9849    5.8922  -41.5653 C   0  0  0  0  0  0  0  0  0  0  0  0
  -37.3941    5.8331  -41.8387 O   0  0  0  0  0  0  0  0  0  0  0  0
  -41.7668    5.2514  -41.9523 X   0  0  0  0  0  0  0  0  0  0  0  0
  1  2  1  0  0  0  0
  1 12  1  0  0  0  0
  2  3  1  0  0  0  0
  3  4  1  0  0  0  0
  3 11  1  0  0  0  0
  4  5  1  0  0  0  0
  5  6  1  0  0  0  0
  5  9  1  0  0  0  0
  6  7  1  0  0  0  0
  7  8  1  0  0  0  0
  8  9  1  0  0  0  0
  9 10  1  0  0  0  0
 10 11  1  0  0  0  0
M  END
> <Index>
4574

> <PropertyFieldDistance>
nan

$$$$
2308634
BBcorina  12272117083D 1   1.00000     0.00000 
CORINA 4.3.0 0026  30.10.2019
 11 12  0  0  0  0  0  0  0  0999 V2000
  -35.9618    3.7303  -44.7320 N   0  0  0  0  0  0  0  0  0  0  0  0
  -37.1358    4.3726  -44.0982 C   0  0  0  0  0  0  0  0  0  0  0  0
  -37.2362    4.0863  -42.6216 C   0  0  0  0  0  0  0  0  0  0  0  0
  -36.5235    5.2144  -41.8424 C   0  0  0  0  0  0  0  0  0  0  0  0
  -35.1304    5.0826  -41.9073 N   0  0  0  0  0  0  0  0  0  0  0  0
  -34.5690    5.1605  -43.2711 C   0  0  0  0  0  0  0  0  0  0  0  0
  -34.7292    3.8095  -43.9212 C   0  0  0  0  0  0  0  0  0  0  0  0
  -34.4688    6.0395  -41.0103 C   0  0  0  0  0  0  0  0  0  0  0  0
  -32.9396    6.0222  -40.9627 C   0  0  0  0  0  0  0  0  0  0  0  0
  -33.7485    5.4761  -39.7836 C   0  0  0  0  0  0  0  0  0  0  0  0
  -35.7009    4.3472  -46.3054 X   0  0  0  0  0  0  0  0  0  0  0  0
  1  2  1  0  0  0  0
  1  7  1  0  0  0  0
  1 11  1  0  0  0  0
  2  3  1  0  0  0  0
  3  4  1  0  0  0  0
  4  5  1  0  0  0  0
  5  6  1  0  0  0  0
  5  8  1  0  0  0  0
  6  7  1  0  0  0  0
  8  9  1  0  0  0  0
  8 10  1  0  0  0  0
  9 10  1  0  0  0  0
M  END
> <Index>
4579

> <PropertyFieldDistance>
nan

$$$$
2308256
BBcorina  12272117083D 1   1.00000     0.00000 
CORINA 4.3.0 0026  30.10.2019
  9  9  0  0  0  0  0  0  0  0999 V2000
  -35.9480    3.4664  -44.1723 N   0  0  0  0  0  0  0  0  0  0  0  0
  -37.0291    4.3869  -43.7977 C   0  0  0  0  0  0  0  0  0  0  0  0
  -36.6585    5.1099  -42.5008 C   0  0  0  0  0  0  0  0  0  0  0  0
  -35.3535    5.8833  -42.7079 C   0  0  0  0  0  0  0  0  0  0  0  0
  -34.2559    4.9088  -43.1442 C   0  0  0  0  0  0  0  0  0  0  0  0
  -34.6958    4.1916  -44.4226 C   0  0  0  0  0  0  0  0  0  0  0  0
  -34.9614    6.5332  -41.4468 C   0  0  0  0  0  0  0  0  0  0  0  0
  -34.6588    7.0350  -40.4735 N   0  0  0  0  0  0  0  0  0  0  0  0
  -36.3899    2.5211  -45.5270 X   0  0  0  0  0  0  0  0  0  0  0  0
  1  2  1  0  0  0  0
  1  6  1  0  0  0  0
  1  9  1  0  0  0  0
  2  3  1  0  0  0  0
  3  4  1  0  0  0  0
  4  5  1  0  0  0  0
  4  7  1  0  0  0  0
  5  6  1  0  0  0  0
  7  8  3  0  0  0  0
M  END
> <Index>
4583

> <PropertyFieldDistance>
nan

$$$$
2769204
BBcorina  12272117083D 1   1.00000     0.00000 
CORINA 4.3.0 0026  30.10.2019
 14 14  0  0  0  0  0  0  0  0999 V2000
  -32.5772    6.8045  -43.2233 N   0  0  0  0  0  0  0  0  0  0  0  0
  -33.0712    5.7300  -43.8698 C   0  0  0  0  0  0  0  0  0  0  0  0
  -32.5200    5.3164  -44.8678 O   0  0  0  0  0  0  0  0  0  0  0  0
  -34.3086    5.0426  -43.3526 C   0  0  0  0  0  0  0  0  0  0  0  0
  -35.4756    6.0337  -43.3380 C   0  0  0  0  0  0  0  0  0  0  0  0
  -36.7417    5.3123  -42.8675 C   0  0  0  0  0  0  0  0  0  0  0  0
  -37.0207    4.1259  -43.7932 C   0  0  0  0  0  0  0  0  0  0  0  0
  -35.8754    3.2070  -43.7715 N   0  0  0  0  0  0  0  0  0  0  0  0
  -36.1636    1.9885  -44.5398 C   0  0  0  0  0  0  0  0  0  0  0  0
  -36.3175    2.3435  -46.0201 C   0  0  0  0  0  0  0  0  0  0  0  0
  -36.6176    1.0744  -46.8203 C   0  0  0  0  0  0  0  0  0  0  0  0
  -36.7654    1.4152  -48.2416 N   0  0  0  0  0  0  0  0  0  0  0  0
  -34.6580    3.8640  -44.2642 C   0  0  0  0  0  0  0  0  0  0  0  0
  -37.1023    0.0220  -49.1741 X   0  0  0  0  0  0  0  0  0  0  0  0
  1  2  1  0  0  0  0
  2  3  2  0  0  0  0
  2  4  1  0  0  0  0
  4  5  1  0  0  0  0
  4 13  1  0  0  0  0
  5  6  1  0  0  0  0
  6  7  1  0  0  0  0
  7  8  1  0  0  0  0
  8  9  1  0  0  0  0
  8 13  1  0  0  0  0
  9 10  1  0  0  0  0
 10 11  1  0  0  0  0
 11 12  1  0  0  0  0
 12 14  1  0  0  0  0
M  END
> <Index>
4597

> <PropertyFieldDistance>
nan

$$$$
2497032
BBcorina  12272117083D 1   1.00000     0.00000 
CORINA 4.3.0 0026  30.10.2019
 14 14  0  0  0  0  0  0  0  0999 V2000
  -34.6980   -2.0232  -46.2981 C   0  0  0  0  0  0  0  0  0  0  0  0
  -34.3674   -0.5568  -46.0133 C   0  0  0  0  0  0  0  0  0  0  0  0
  -33.9019    0.1210  -47.3035 C   0  0  0  0  0  0  0  0  0  0  0  0
  -35.6152    0.1540  -45.4852 C   0  0  0  0  0  0  0  0  0  0  0  0
  -35.2731    1.5126  -45.1036 O   0  0  0  0  0  0  0  0  0  0  0  0
  -36.2667    2.2788  -44.6153 C   0  0  0  0  0  0  0  0  0  0  0  0
  -37.3889    1.8247  -44.5109 O   0  0  0  0  0  0  0  0  0  0  0  0
  -36.0166    3.5496  -44.2424 N   0  0  0  0  0  0  0  0  0  0  0  0
  -37.0874    4.4037  -43.7065 C   0  0  0  0  0  0  0  0  0  0  0  0
  -36.6072    5.0157  -42.3863 C   0  0  0  0  0  0  0  0  0  0  0  0
  -35.3220    5.6934  -42.6033 N   0  0  0  0  0  0  0  0  0  0  0  0
  -34.2808    4.7422  -43.0145 C   0  0  0  0  0  0  0  0  0  0  0  0
  -34.6644    4.1171  -44.3547 C   0  0  0  0  0  0  0  0  0  0  0  0
  -34.8436    6.5609  -41.2095 X   0  0  0  0  0  0  0  0  0  0  0  0
  1  2  1  0  0  0  0
  2  3  1  0  0  0  0
  2  4  1  0  0  0  0
  4  5  1  0  0  0  0
  5  6  1  0  0  0  0
  6  7  2  0  0  0  0
  6  8  1  0  0  0  0
  8  9  1  0  0  0  0
  8 13  1  0  0  0  0
  9 10  1  0  0  0  0
 10 11  1  0  0  0  0
 11 12  1  0  0  0  0
 11 14  1  0  0  0  0
 12 13  1  0  0  0  0
M  END
> <Index>
4598

> <PropertyFieldDistance>
nan

$$$$
11353140
BBcorina  12272117083D 1   1.00000     0.00000 
CORINA 4.3.0 0026  30.10.2019
 10 10  0  0  0  0  0  0  0  0999 V2000
  -31.9808    4.8840  -40.3373 C   0  0  0  0  0  0  0  0  0  0  0  0
  -33.0556    4.1332  -41.0801 C   0  0  0  0  0  0  0  0  0  0  0  0
  -32.9929    2.9262  -41.1813 O   0  0  0  0  0  0  0  0  0  0  0  0
  -34.0867    4.8030  -41.6322 N   0  0  0  0  0  0  0  0  0  0  0  0
  -35.1316    4.0731  -42.3544 C   0  0  0  0  0  0  0  0  0  0  0  0
  -36.4196    4.9319  -42.4898 C   0  0  0  0  0  0  0  0  0  0  0  0
  -37.0796    4.3646  -43.7642 C   0  0  0  0  0  0  0  0  0  0  0  0
  -36.0217    3.7054  -44.5516 N   0  0  0  0  0  0  0  0  0  0  0  0
  -34.7367    3.8612  -43.8373 C   0  0  0  0  0  0  0  0  0  0  0  0
  -35.9306    4.3633  -46.1274 X   0  0  0  0  0  0  0  0  0  0  0  0
  1  2  1  0  0  0  0
  2  3  2  0  0  0  0
  2  4  1  0  0  0  0
  4  5  1  0  0  0  0
  5  6  1  0  0  0  0
  5  9  1  0  0  0  0
  6  7  1  0  0  0  0
  7  8  1  0  0  0  0
  8  9  1  0  0  0  0
  8 10  1  0  0  0  0
M  END
> <Index>
4604

> <PropertyFieldDistance>
nan

$$$$
4836996
BBcorina  12272117083D 1   1.00000     0.00000 
CORINA 4.3.0 0026  30.10.2019
 13 13  0  0  0  0  0  0  0  0999 V2000
  -34.4346    6.3740  -41.6746 C   0  0  0  0  0  0  0  0  0  0  0  0
  -35.1483    5.1458  -42.0492 N   0  0  0  0  0  0  0  0  0  0  0  0
  -36.5137    5.2488  -41.7538 C   0  0  0  0  0  0  0  0  0  0  0  0
  -37.2397    3.8993  -41.9526 C   0  0  0  0  0  0  0  0  0  0  0  0
  -37.4321    3.6599  -43.4284 C   0  0  0  0  0  0  0  0  0  0  0  0
  -36.3323    2.8747  -44.0338 N   0  0  0  0  0  0  0  0  0  0  0  0
  -36.4053    2.9108  -45.5005 C   0  0  0  0  0  0  0  0  0  0  0  0
  -35.4182    1.8985  -46.0853 C   0  0  0  0  0  0  0  0  0  0  0  0
  -35.4941    1.9360  -47.6129 C   0  0  0  0  0  0  0  0  0  0  0  0
  -34.5463    0.9642  -48.1744 N   0  0  0  0  0  0  0  0  0  0  0  0
  -34.9890    3.2675  -43.5607 C   0  0  0  0  0  0  0  0  0  0  0  0
  -34.8488    4.7643  -43.4442 C   0  0  0  0  0  0  0  0  0  0  0  0
  -34.5991    0.9737  -49.8834 X   0  0  0  0  0  0  0  0  0  0  0  0
  1  2  1  0  0  0  0
  2  3  1  0  0  0  0
  2 12  1  0  0  0  0
  3  4  1  0  0  0  0
  4  5  1  0  0  0  0
  5  6  1  0  0  0  0
  6  7  1  0  0  0  0
  6 11  1  0  0  0  0
  7  8  1  0  0  0  0
  8  9  1  0  0  0  0
  9 10  1  0  0  0  0
 10 13  1  0  0  0  0
 11 12  1  0  0  0  0
M  END
> <Index>
4605

> <PropertyFieldDistance>
nan

$$$$
2337026
BBcorina  12272117083D 1   1.00000     0.00000 
CORINA 4.3.0 0026  30.10.2019
 18 19  0  0  0  0  0  0  0  0999 V2000
  -38.3369    1.3028  -49.5399 N   0  0  0  0  0  0  0  0  0  0  0  0
  -38.6833    1.1108  -48.2006 C   0  0  0  0  0  0  0  0  0  0  0  0
  -39.6346    0.1577  -47.8580 C   0  0  0  0  0  0  0  0  0  0  0  0
  -39.9770   -0.0334  -46.5330 C   0  0  0  0  0  0  0  0  0  0  0  0
  -39.3760    0.7226  -45.5452 C   0  0  0  0  0  0  0  0  0  0  0  0
  -38.4246    1.6779  -45.8813 C   0  0  0  0  0  0  0  0  0  0  0  0
  -37.8167    2.4433  -44.8799 N   0  0  0  0  0  0  0  0  0  0  0  0
  -36.5209    2.7959  -44.9944 C   0  0  0  0  0  0  0  0  0  0  0  0
  -35.9034    2.5222  -46.0053 O   0  0  0  0  0  0  0  0  0  0  0  0
  -35.9097    3.4521  -43.9882 N   0  0  0  0  0  0  0  0  0  0  0  0
  -36.6969    3.8556  -42.8447 C   0  0  0  0  0  0  0  0  0  0  0  0
  -37.2828    5.2680  -43.0896 C   0  0  0  0  0  0  0  0  0  0  0  0
  -36.2182    6.2809  -43.0250 C   0  0  0  0  0  0  0  0  0  0  0  0
  -35.1402    6.1287  -44.0939 C   0  0  0  0  0  0  0  0  0  0  0  0
  -34.1016    5.1423  -43.6198 C   0  0  0  0  0  0  0  0  0  0  0  0
  -34.4629    3.7237  -44.0965 C   0  0  0  0  0  0  0  0  0  0  0  0
  -38.0822    1.8760  -47.2107 C   0  0  0  0  0  0  0  0  0  0  0  0
  -39.0835    0.3647  -50.7591 X   0  0  0  0  0  0  0  0  0  0  0  0
  1  2  1  0  0  0  0
  1 18  1  0  0  0  0
  2  3  2  0  0  0  0
  2 17  1  0  0  0  0
  3  4  1  0  0  0  0
  4  5  2  0  0  0  0
  5  6  1  0  0  0  0
  6  7  1  0  0  0  0
  6 17  2  0  0  0  0
  7  8  1  0  0  0  0
  8  9  2  0  0  0  0
  8 10  1  0  0  0  0
 10 11  1  0  0  0  0
 10 16  1  0  0  0  0
 11 12  1  0  0  0  0
 12 13  1  0  0  0  0
 13 14  1  0  0  0  0
 14 15  1  0  0  0  0
 15 16  1  0  0  0  0
M  END
> <Index>
4618

> <PropertyFieldDistance>
nan

$$$$
2392430
BBcorina  12272117083D 1   1.00000     0.00000 
CORINA 4.3.0 0026  30.10.2019
 18 19  0  0  0  0  0  0  0  0999 V2000
  -38.3623    0.0198  -50.4029 N   0  0  0  0  0  0  0  0  0  0  0  0
  -37.7180    0.5961  -49.3028 C   0  0  0  0  0  0  0  0  0  0  0  0
  -38.3159    1.6474  -48.6200 C   0  0  0  0  0  0  0  0  0  0  0  0
  -37.6798    2.2161  -47.5345 C   0  0  0  0  0  0  0  0  0  0  0  0
  -36.4427    1.7369  -47.1253 C   0  0  0  0  0  0  0  0  0  0  0  0
  -35.7968    2.3148  -46.0233 N   0  0  0  0  0  0  0  0  0  0  0  0
  -36.5214    2.7987  -44.9950 C   0  0  0  0  0  0  0  0  0  0  0  0
  -37.7276    2.6459  -44.9763 O   0  0  0  0  0  0  0  0  0  0  0  0
  -35.9091    3.4518  -43.9876 N   0  0  0  0  0  0  0  0  0  0  0  0
  -36.6960    3.8555  -42.8439 C   0  0  0  0  0  0  0  0  0  0  0  0
  -37.2838    5.2670  -43.0897 C   0  0  0  0  0  0  0  0  0  0  0  0
  -36.2202    6.2813  -43.0268 C   0  0  0  0  0  0  0  0  0  0  0  0
  -35.1429    6.1293  -44.0964 C   0  0  0  0  0  0  0  0  0  0  0  0
  -34.1027    5.1445  -43.6222 C   0  0  0  0  0  0  0  0  0  0  0  0
  -34.4617    3.7202  -44.0948 C   0  0  0  0  0  0  0  0  0  0  0  0
  -35.8448    0.6860  -47.8076 C   0  0  0  0  0  0  0  0  0  0  0  0
  -36.4830    0.1132  -48.8898 C   0  0  0  0  0  0  0  0  0  0  0  0
  -37.6260   -1.2747  -51.2433 X   0  0  0  0  0  0  0  0  0  0  0  0
  1  2  1  0  0  0  0
  1 18  1  0  0  0  0
  2  3  2  0  0  0  0
  2 17  1  0  0  0  0
  3  4  1  0  0  0  0
  4  5  2  0  0  0  0
  5  6  1  0  0  0  0
  5 16  1  0  0  0  0
  6  7  1  0  0  0  0
  7  8  2  0  0  0  0
  7  9  1  0  0  0  0
  9 10  1  0  0  0  0
  9 15  1  0  0  0  0
 10 11  1  0  0  0  0
 11 12  1  0  0  0  0
 12 13  1  0  0  0  0
 13 14  1  0  0  0  0
 14 15  1  0  0  0  0
 16 17  2  0  0  0  0
M  END
> <Index>
4619

> <PropertyFieldDistance>
nan

$$$$
2391330
BBcorina  12272117083D 1   1.00000     0.00000 
CORINA 4.3.0 0026  30.10.2019
 13 13  0  0  0  0  0  0  0  0999 V2000
  -35.5573    1.3479  -48.2542 C   0  0  0  0  0  0  0  0  0  0  0  0
  -36.5250    1.7068  -47.1247 C   0  0  0  0  0  0  0  0  0  0  0  0
  -35.8058    2.4064  -46.0752 O   0  0  0  0  0  0  0  0  0  0  0  0
  -36.5179    2.7950  -45.0006 C   0  0  0  0  0  0  0  0  0  0  0  0
  -37.7087    2.5603  -44.9437 O   0  0  0  0  0  0  0  0  0  0  0  0
  -35.9109    3.4490  -43.9906 N   0  0  0  0  0  0  0  0  0  0  0  0
  -36.7060    3.8519  -42.8511 C   0  0  0  0  0  0  0  0  0  0  0  0
  -37.2600    5.2799  -43.0853 C   0  0  0  0  0  0  0  0  0  0  0  0
  -36.1562    6.2575  -43.0320 C   0  0  0  0  0  0  0  0  0  0  0  0
  -35.1349    6.0717  -44.0624 N   0  0  0  0  0  0  0  0  0  0  0  0
  -34.1186    5.1442  -43.6122 C   0  0  0  0  0  0  0  0  0  0  0  0
  -34.4613    3.7177  -44.0933 C   0  0  0  0  0  0  0  0  0  0  0  0
  -34.4418    7.5679  -44.5151 X   0  0  0  0  0  0  0  0  0  0  0  0
  1  2  1  0  0  0  0
  2  3  1  0  0  0  0
  3  4  1  0  0  0  0
  4  5  2  0  0  0  0
  4  6  1  0  0  0  0
  6  7  1  0  0  0  0
  6 12  1  0  0  0  0
  7  8  1  0  0  0  0
  8  9  1  0  0  0  0
  9 10  1  0  0  0  0
 10 11  1  0  0  0  0
 10 13  1  0  0  0  0
 11 12  1  0  0  0  0
M  END
> <Index>
4620

> <PropertyFieldDistance>
nan

$$$$
4836998
BBcorina  12272117083D 1   1.00000     0.00000 
CORINA 4.3.0 0026  30.10.2019
 13 13  0  0  0  0  0  0  0  0999 V2000
  -37.6595    2.1693  -46.5111 C   0  0  0  0  0  0  0  0  0  0  0  0
  -37.0108    1.6474  -45.2274 C   0  0  0  0  0  0  0  0  0  0  0  0
  -36.7484    0.2083  -45.3616 N   0  0  0  0  0  0  0  0  0  0  0  0
  -35.7126    2.3746  -44.9889 C   0  0  0  0  0  0  0  0  0  0  0  0
  -34.6585    1.8361  -45.2530 O   0  0  0  0  0  0  0  0  0  0  0  0
  -35.7231    3.6235  -44.4821 N   0  0  0  0  0  0  0  0  0  0  0  0
  -36.9832    4.2486  -44.0578 C   0  0  0  0  0  0  0  0  0  0  0  0
  -36.8307    4.7342  -42.6129 C   0  0  0  0  0  0  0  0  0  0  0  0
  -35.6094    5.6511  -42.5134 C   0  0  0  0  0  0  0  0  0  0  0  0
  -34.3502    4.8698  -42.8959 C   0  0  0  0  0  0  0  0  0  0  0  0
  -34.4747    4.3857  -44.3440 C   0  0  0  0  0  0  0  0  0  0  0  0
  -33.2847    3.4880  -44.6888 C   0  0  0  0  0  0  0  0  0  0  0  0
  -38.0834   -0.7115  -44.8176 X   0  0  0  0  0  0  0  0  0  0  0  0
  1  2  1  0  0  0  0
  2  3  1  0  0  0  0
  2  4  1  0  0  0  0
  3 13  1  0  0  0  0
  4  5  2  0  0  0  0
  4  6  1  0  0  0  0
  6  7  1  0  0  0  0
  6 11  1  0  0  0  0
  7  8  1  0  0  0  0
  8  9  1  0  0  0  0
  9 10  1  0  0  0  0
 10 11  1  0  0  0  0
 11 12  1  0  0  0  0
M  END
> <Index>
4621

> <PropertyFieldDistance>
nan

$$$$
7965284
BBcorina  12272117083D 1   1.00000     0.00000 
CORINA 4.3.0 0026  30.10.2019
 11 12  0  0  0  0  0  0  0  0999 V2000
  -35.9951    3.6351  -44.3869 N   0  0  0  0  0  0  0  0  0  0  0  0
  -36.9587    4.5741  -43.8158 C   0  0  0  0  0  0  0  0  0  0  0  0
  -36.6389    4.8956  -42.3509 C   0  0  0  0  0  0  0  0  0  0  0  0
  -35.2776    5.4609  -42.3327 N   0  0  0  0  0  0  0  0  0  0  0  0
  -34.3776    5.2514  -43.4916 C   0  0  0  0  0  0  0  0  0  0  0  0
  -32.9594    5.4208  -42.9168 C   0  0  0  0  0  0  0  0  0  0  0  0
  -33.2166    6.3820  -41.7304 C   0  0  0  0  0  0  0  0  0  0  0  0
  -34.6667    6.1419  -41.3626 C   0  0  0  0  0  0  0  0  0  0  0  0
  -35.1947    6.5150  -40.3365 O   0  0  0  0  0  0  0  0  0  0  0  0
  -34.6097    3.8094  -43.9497 C   0  0  0  0  0  0  0  0  0  0  0  0
  -36.5095    2.0198  -44.1634 X   0  0  0  0  0  0  0  0  0  0  0  0
  1  2  1  0  0  0  0
  1 10  1  0  0  0  0
  1 11  1  0  0  0  0
  2  3  1  0  0  0  0
  3  4  1  0  0  0  0
  4  5  1  0  0  0  0
  4  8  1  0  0  0  0
  5  6  1  0  0  0  0
  5 10  1  0  0  0  0
  6  7  1  0  0  0  0
  7  8  1  0  0  0  0
  8  9  2  0  0  0  0
M  END
> <Index>
4626

> <PropertyFieldDistance>
nan

$$$$
2442744
BBcorina  12272117083D 1   1.00000     0.00000 
CORINA 4.3.0 0026  30.10.2019
 12 12  0  0  0  0  0  0  0  0999 V2000
  -29.4725    5.6233  -44.0848 C   0  0  0  0  0  0  0  0  0  0  0  0
  -30.4577    5.1380  -43.0197 C   0  0  0  0  0  0  0  0  0  0  0  0
  -31.8664    5.2824  -43.5353 C   0  0  0  0  0  0  0  0  0  0  0  0
  -32.0629    5.7296  -44.6455 O   0  0  0  0  0  0  0  0  0  0  0  0
  -32.9079    4.9148  -42.7628 N   0  0  0  0  0  0  0  0  0  0  0  0
  -34.2769    5.0496  -43.2665 C   0  0  0  0  0  0  0  0  0  0  0  0
  -35.2462    5.1676  -42.0869 C   0  0  0  0  0  0  0  0  0  0  0  0
  -36.6793    5.2476  -42.6201 C   0  0  0  0  0  0  0  0  0  0  0  0
  -36.9723    4.0086  -43.4695 C   0  0  0  0  0  0  0  0  0  0  0  0
  -36.0191    3.9414  -44.5845 N   0  0  0  0  0  0  0  0  0  0  0  0
  -34.6396    3.8164  -44.0971 C   0  0  0  0  0  0  0  0  0  0  0  0
  -36.4110    2.6622  -45.6494 X   0  0  0  0  0  0  0  0  0  0  0  0
  1  2  1  0  0  0  0
  2  3  1  0  0  0  0
  3  4  2  0  0  0  0
  3  5  1  0  0  0  0
  5  6  1  0  0  0  0
  6  7  1  0  0  0  0
  6 11  1  0  0  0  0
  7  8  1  0  0  0  0
  8  9  1  0  0  0  0
  9 10  1  0  0  0  0
 10 11  1  0  0  0  0
 10 12  1  0  0  0  0
M  END
> <Index>
4630

> <PropertyFieldDistance>
nan

$$$$
2560976
BBcorina  12272117083D 1   1.00000     0.00000 
CORINA 4.3.0 0026  30.10.2019
 13 13  0  0  0  0  0  0  0  0999 V2000
  -29.4733    5.6394  -44.0783 C   0  0  0  0  0  0  0  0  0  0  0  0
  -30.4584    5.1489  -43.0153 C   0  0  0  0  0  0  0  0  0  0  0  0
  -30.2972    5.9868  -41.7453 C   0  0  0  0  0  0  0  0  0  0  0  0
  -31.8667    5.2876  -43.5333 C   0  0  0  0  0  0  0  0  0  0  0  0
  -32.0633    5.7348  -44.6434 O   0  0  0  0  0  0  0  0  0  0  0  0
  -32.9078    4.9147  -42.7629 N   0  0  0  0  0  0  0  0  0  0  0  0
  -34.2770    5.0496  -43.2665 C   0  0  0  0  0  0  0  0  0  0  0  0
  -35.2462    5.1675  -42.0870 C   0  0  0  0  0  0  0  0  0  0  0  0
  -36.6793    5.2476  -42.6202 C   0  0  0  0  0  0  0  0  0  0  0  0
  -36.9723    4.0087  -43.4695 C   0  0  0  0  0  0  0  0  0  0  0  0
  -36.0191    3.9414  -44.5845 N   0  0  0  0  0  0  0  0  0  0  0  0
  -34.6396    3.8164  -44.0970 C   0  0  0  0  0  0  0  0  0  0  0  0
  -36.4111    2.6622  -45.6494 X   0  0  0  0  0  0  0  0  0  0  0  0
  1  2  1  0  0  0  0
  2  3  1  0  0  0  0
  2  4  1  0  0  0  0
  4  5  2  0  0  0  0
  4  6  1  0  0  0  0
  6  7  1  0  0  0  0
  7  8  1  0  0  0  0
  7 12  1  0  0  0  0
  8  9  1  0  0  0  0
  9 10  1  0  0  0  0
 10 11  1  0  0  0  0
 11 12  1  0  0  0  0
 11 13  1  0  0  0  0
M  END
> <Index>
4632

> <PropertyFieldDistance>
nan

$$$$
2677634
BBcorina  12272117083D 1   1.00000     0.00000 
CORINA 4.3.0 0026  30.10.2019
 13 13  0  0  0  0  0  0  0  0999 V2000
  -28.0435    5.4986  -43.5524 C   0  0  0  0  0  0  0  0  0  0  0  0
  -29.4733    5.6394  -44.0783 C   0  0  0  0  0  0  0  0  0  0  0  0
  -30.4584    5.1489  -43.0153 C   0  0  0  0  0  0  0  0  0  0  0  0
  -31.8667    5.2876  -43.5333 C   0  0  0  0  0  0  0  0  0  0  0  0
  -32.0633    5.7348  -44.6434 O   0  0  0  0  0  0  0  0  0  0  0  0
  -32.9078    4.9147  -42.7629 N   0  0  0  0  0  0  0  0  0  0  0  0
  -34.2770    5.0496  -43.2665 C   0  0  0  0  0  0  0  0  0  0  0  0
  -35.2462    5.1675  -42.0870 C   0  0  0  0  0  0  0  0  0  0  0  0
  -36.6793    5.2476  -42.6202 C   0  0  0  0  0  0  0  0  0  0  0  0
  -36.9723    4.0087  -43.4695 C   0  0  0  0  0  0  0  0  0  0  0  0
  -36.0191    3.9414  -44.5845 N   0  0  0  0  0  0  0  0  0  0  0  0
  -34.6396    3.8164  -44.0970 C   0  0  0  0  0  0  0  0  0  0  0  0
  -36.4111    2.6622  -45.6494 X   0  0  0  0  0  0  0  0  0  0  0  0
  1  2  1  0  0  0  0
  2  3  1  0  0  0  0
  3  4  1  0  0  0  0
  4  5  2  0  0  0  0
  4  6  1  0  0  0  0
  6  7  1  0  0  0  0
  7  8  1  0  0  0  0
  7 12  1  0  0  0  0
  8  9  1  0  0  0  0
  9 10  1  0  0  0  0
 10 11  1  0  0  0  0
 11 12  1  0  0  0  0
 11 13  1  0  0  0  0
M  END
> <Index>
4634

> <PropertyFieldDistance>
nan

$$$$
11975072
BBcorina  12272117083D 1   1.00000     0.00000 
CORINA 4.3.0 0026  30.10.2019
 16 17  0  0  0  0  0  0  0  0999 V2000
  -35.5475    7.4514  -40.9227 N   0  0  0  0  0  0  0  0  0  0  0  0
  -34.8142    7.0121  -42.1174 C   0  0  0  0  0  0  0  0  0  0  0  0
  -35.1651    5.5548  -42.4240 C   0  0  0  0  0  0  0  0  0  0  0  0
  -36.6444    5.4542  -42.8064 C   0  0  0  0  0  0  0  0  0  0  0  0
  -36.9747    4.0049  -43.1704 C   0  0  0  0  0  0  0  0  0  0  0  0
  -36.1305    3.5765  -44.2929 N   0  0  0  0  0  0  0  0  0  0  0  0
  -36.5153    2.2380  -44.7601 C   0  0  0  0  0  0  0  0  0  0  0  0
  -35.8041    1.9336  -46.0534 C   0  0  0  0  0  0  0  0  0  0  0  0
  -34.5624    1.3166  -46.0523 C   0  0  0  0  0  0  0  0  0  0  0  0
  -33.9405    1.0528  -47.2580 C   0  0  0  0  0  0  0  0  0  0  0  0
  -34.5145    1.3810  -48.3990 N   0  0  0  0  0  0  0  0  0  0  0  0
  -35.6943    1.9687  -48.4381 C   0  0  0  0  0  0  0  0  0  0  0  0
  -36.3785    2.2585  -47.2727 C   0  0  0  0  0  0  0  0  0  0  0  0
  -34.7073    3.6195  -43.9337 C   0  0  0  0  0  0  0  0  0  0  0  0
  -34.3093    5.0572  -43.5922 C   0  0  0  0  0  0  0  0  0  0  0  0
  -35.1833    9.0787  -40.5441 X   0  0  0  0  0  0  0  0  0  0  0  0
  1  2  1  0  0  0  0
  1 16  1  0  0  0  0
  2  3  1  0  0  0  0
  3  4  1  0  0  0  0
  3 15  1  0  0  0  0
  4  5  1  0  0  0  0
  5  6  1  0  0  0  0
  6  7  1  0  0  0  0
  6 14  1  0  0  0  0
  7  8  1  0  0  0  0
  8  9  2  0  0  0  0
  8 13  1  0  0  0  0
  9 10  1  0  0  0  0
 10 11  2  0  0  0  0
 11 12  1  0  0  0  0
 12 13  2  0  0  0  0
 14 15  1  0  0  0  0
M  END
> <Index>
4635

> <PropertyFieldDistance>
nan

$$$$
4837000
BBcorina  12272117083D 1   1.00000     0.00000 
CORINA 4.3.0 0026  30.10.2019
 11 11  0  0  0  0  0  0  0  0999 V2000
  -36.0315    8.0095  -41.6147 C   0  0  0  0  0  0  0  0  0  0  0  0
  -34.9560    6.9432  -41.8327 C   0  0  0  0  0  0  0  0  0  0  0  0
  -33.6858    7.5931  -42.1824 N   0  0  0  0  0  0  0  0  0  0  0  0
  -35.3831    6.0132  -42.9701 C   0  0  0  0  0  0  0  0  0  0  0  0
  -36.6552    5.2625  -42.5668 C   0  0  0  0  0  0  0  0  0  0  0  0
  -37.0441    4.2899  -43.6826 C   0  0  0  0  0  0  0  0  0  0  0  0
  -35.9452    3.3417  -43.9110 N   0  0  0  0  0  0  0  0  0  0  0  0
  -36.3352    2.3074  -44.8787 C   0  0  0  0  0  0  0  0  0  0  0  0
  -34.7260    4.0355  -44.3451 C   0  0  0  0  0  0  0  0  0  0  0  0
  -34.2690    5.0007  -43.2489 C   0  0  0  0  0  0  0  0  0  0  0  0
  -33.8682    8.5961  -43.5554 X   0  0  0  0  0  0  0  0  0  0  0  0
  1  2  1  0  0  0  0
  2  3  1  0  0  0  0
  2  4  1  0  0  0  0
  3 11  1  0  0  0  0
  4  5  1  0  0  0  0
  4 10  1  0  0  0  0
  5  6  1  0  0  0  0
  6  7  1  0  0  0  0
  7  8  1  0  0  0  0
  7  9  1  0  0  0  0
  9 10  1  0  0  0  0
M  END
> <Index>
4682

> <PropertyFieldDistance>
nan

$$$$
2336978
BBcorina  12272117083D 1   1.00000     0.00000 
CORINA 4.3.0 0026  30.10.2019
 18 19  0  0  0  0  0  0  0  0999 V2000
  -41.9120   -0.1819  -46.2981 Cl  0  0  0  0  0  0  0  0  0  0  0  0
  -40.3408    0.4816  -46.6213 C   0  0  0  0  0  0  0  0  0  0  0  0
  -39.6930    0.1796  -47.8063 C   0  0  0  0  0  0  0  0  0  0  0  0
  -38.4389    0.7017  -48.0645 C   0  0  0  0  0  0  0  0  0  0  0  0
  -37.8289    1.5267  -47.1400 C   0  0  0  0  0  0  0  0  0  0  0  0
  -38.4758    1.8322  -45.9495 C   0  0  0  0  0  0  0  0  0  0  0  0
  -37.8595    2.6676  -45.0110 N   0  0  0  0  0  0  0  0  0  0  0  0
  -36.5178    2.7949  -45.0006 C   0  0  0  0  0  0  0  0  0  0  0  0
  -35.8551    2.3198  -45.9024 O   0  0  0  0  0  0  0  0  0  0  0  0
  -35.9109    3.4490  -43.9906 N   0  0  0  0  0  0  0  0  0  0  0  0
  -36.7060    3.8519  -42.8511 C   0  0  0  0  0  0  0  0  0  0  0  0
  -37.2600    5.2800  -43.0853 C   0  0  0  0  0  0  0  0  0  0  0  0
  -36.1562    6.2575  -43.0320 C   0  0  0  0  0  0  0  0  0  0  0  0
  -35.1349    6.0716  -44.0623 N   0  0  0  0  0  0  0  0  0  0  0  0
  -34.1187    5.1442  -43.6122 C   0  0  0  0  0  0  0  0  0  0  0  0
  -34.4613    3.7177  -44.0933 C   0  0  0  0  0  0  0  0  0  0  0  0
  -39.7349    1.3069  -45.6923 C   0  0  0  0  0  0  0  0  0  0  0  0
  -34.4419    7.5679  -44.5151 X   0  0  0  0  0  0  0  0  0  0  0  0
  1  2  1  0  0  0  0
  2  3  2  0  0  0  0
  2 17  1  0  0  0  0
  3  4  1  0  0  0  0
  4  5  2  0  0  0  0
  5  6  1  0  0  0  0
  6  7  1  0  0  0  0
  6 17  2  0  0  0  0
  7  8  1  0  0  0  0
  8  9  2  0  0  0  0
  8 10  1  0  0  0  0
 10 11  1  0  0  0  0
 10 16  1  0  0  0  0
 11 12  1  0  0  0  0
 12 13  1  0  0  0  0
 13 14  1  0  0  0  0
 14 15  1  0  0  0  0
 14 18  1  0  0  0  0
 15 16  1  0  0  0  0
M  END
> <Index>
4692

> <PropertyFieldDistance>
nan

$$$$
4994624
BBcorina  12272117083D 1   1.00000     0.00000 
CORINA 4.3.0 0026  30.10.2019
 11 11  0  0  0  0  0  0  0  0999 V2000
  -33.6372    7.3261  -41.6057 C   0  0  0  0  0  0  0  0  0  0  0  0
  -34.9453    6.5600  -41.3980 C   0  0  0  0  0  0  0  0  0  0  0  0
  -36.0427    7.5333  -40.9630 C   0  0  0  0  0  0  0  0  0  0  0  0
  -34.7474    5.4975  -40.3150 C   0  0  0  0  0  0  0  0  0  0  0  0
  -35.3535    5.8833  -42.7079 C   0  0  0  0  0  0  0  0  0  0  0  0
  -36.6585    5.1099  -42.5008 C   0  0  0  0  0  0  0  0  0  0  0  0
  -37.0291    4.3869  -43.7977 C   0  0  0  0  0  0  0  0  0  0  0  0
  -35.9480    3.4664  -44.1723 N   0  0  0  0  0  0  0  0  0  0  0  0
  -34.6958    4.1916  -44.4226 C   0  0  0  0  0  0  0  0  0  0  0  0
  -34.2559    4.9088  -43.1442 C   0  0  0  0  0  0  0  0  0  0  0  0
  -36.3899    2.5211  -45.5270 X   0  0  0  0  0  0  0  0  0  0  0  0
  1  2  1  0  0  0  0
  2  3  1  0  0  0  0
  2  4  1  0  0  0  0
  2  5  1  0  0  0  0
  5  6  1  0  0  0  0
  5 10  1  0  0  0  0
  6  7  1  0  0  0  0
  7  8  1  0  0  0  0
  8  9  1  0  0  0  0
  8 11  1  0  0  0  0
  9 10  1  0  0  0  0
M  END
> <Index>
4698

> <PropertyFieldDistance>
nan

$$$$
2517172
BBcorina  12272117083D 1   1.00000     0.00000 
CORINA 4.3.0 0026  30.10.2019
 15 16  0  0  0  0  0  0  0  0999 V2000
  -32.9660    0.6915  -48.0430 C   0  0  0  0  0  0  0  0  0  0  0  0
  -34.1684    1.3332  -47.4000 C   0  0  0  0  0  0  0  0  0  0  0  0
  -34.5177    1.2731  -46.0927 C   0  0  0  0  0  0  0  0  0  0  0  0
  -35.7077    2.0331  -46.0216 C   0  0  0  0  0  0  0  0  0  0  0  0
  -36.5353    2.3016  -44.7912 C   0  0  0  0  0  0  0  0  0  0  0  0
  -36.1406    3.5906  -44.2073 N   0  0  0  0  0  0  0  0  0  0  0  0
  -37.0338    3.9803  -43.2010 C   0  0  0  0  0  0  0  0  0  0  0  0
  -36.7506    5.4209  -42.7190 C   0  0  0  0  0  0  0  0  0  0  0  0
  -35.5330    5.4091  -41.8303 C   0  0  0  0  0  0  0  0  0  0  0  0
  -34.2772    5.6742  -42.5687 N   0  0  0  0  0  0  0  0  0  0  0  0
  -34.1954    4.9841  -43.8725 C   0  0  0  0  0  0  0  0  0  0  0  0
  -34.7221    3.5733  -43.7965 C   0  0  0  0  0  0  0  0  0  0  0  0
  -35.9499    2.4502  -47.2307 N   0  0  0  0  0  0  0  0  0  0  0  0
  -35.1031    2.0764  -48.0087 O   0  0  0  0  0  0  0  0  0  0  0  0
  -32.9116    5.3212  -41.6018 X   0  0  0  0  0  0  0  0  0  0  0  0
  1  2  1  0  0  0  0
  2  3  2  0  0  0  0
  2 14  1  0  0  0  0
  3  4  1  0  0  0  0
  4  5  1  0  0  0  0
  4 13  2  0  0  0  0
  5  6  1  0  0  0  0
  6  7  1  0  0  0  0
  6 12  1  0  0  0  0
  7  8  1  0  0  0  0
  8  9  1  0  0  0  0
  9 10  1  0  0  0  0
 10 11  1  0  0  0  0
 10 15  1  0  0  0  0
 11 12  1  0  0  0  0
 13 14  1  0  0  0  0
M  END
> <Index>
4712

> <PropertyFieldDistance>
nan

$$$$
5359148
BBcorina  12272117083D 1   1.00000     0.00000 
CORINA 4.3.0 0026  30.10.2019
 13 14  0  0  0  0  0  0  0  0999 V2000
  -35.9663    3.5257  -44.3193 N   0  0  0  0  0  0  0  0  0  0  0  0
  -37.2740    4.2176  -44.2619 C   0  0  0  0  0  0  0  0  0  0  0  0
  -37.2620    5.4179  -43.3019 C   0  0  0  0  0  0  0  0  0  0  0  0
  -36.5150    5.1172  -42.0269 C   0  0  0  0  0  0  0  0  0  0  0  0
  -35.1076    5.5393  -42.1970 N   0  0  0  0  0  0  0  0  0  0  0  0
  -34.3202    4.6273  -42.9101 C   0  0  0  0  0  0  0  0  0  0  0  0
  -34.8318    4.4215  -44.3502 C   0  0  0  0  0  0  0  0  0  0  0  0
  -34.4951    5.8636  -40.9018 C   0  0  0  0  0  0  0  0  0  0  0  0
  -33.0824    6.4708  -41.0942 C   0  0  0  0  0  0  0  0  0  0  0  0
  -32.8444    7.2880  -39.8077 C   0  0  0  0  0  0  0  0  0  0  0  0
  -34.2330    7.6295  -39.2394 C   0  0  0  0  0  0  0  0  0  0  0  0
  -35.2675    7.0086  -40.2007 C   0  0  0  0  0  0  0  0  0  0  0  0
  -35.9127    2.4238  -45.6257 X   0  0  0  0  0  0  0  0  0  0  0  0
  1  2  1  0  0  0  0
  1  7  1  0  0  0  0
  1 13  1  0  0  0  0
  2  3  1  0  0  0  0
  3  4  1  0  0  0  0
  4  5  1  0  0  0  0
  5  6  1  0  0  0  0
  5  8  1  0  0  0  0
  6  7  1  0  0  0  0
  8  9  1  0  0  0  0
  8 12  1  0  0  0  0
  9 10  1  0  0  0  0
 10 11  1  0  0  0  0
 11 12  1  0  0  0  0
M  END
> <Index>
4722

> <PropertyFieldDistance>
nan

$$$$
2833098
BBcorina  12272117083D 1   1.00000     0.00000 
CORINA 4.3.0 0026  30.10.2019
 15 16  0  0  0  0  0  0  0  0999 V2000
  -35.1001    5.2778  -42.4161 N   0  0  0  0  0  0  0  0  0  0  0  0
  -36.5235    5.0389  -42.1830 C   0  0  0  0  0  0  0  0  0  0  0  0
  -37.3197    5.6745  -43.2998 C   0  0  0  0  0  0  0  0  0  0  0  0
  -37.5634    4.6424  -44.4137 C   0  0  0  0  0  0  0  0  0  0  0  0
  -36.3658    3.8108  -44.6441 N   0  0  0  0  0  0  0  0  0  0  0  0
  -35.0264    4.3629  -44.6632 C   0  0  0  0  0  0  0  0  0  0  0  0
  -34.4316    4.3378  -43.2346 C   0  0  0  0  0  0  0  0  0  0  0  0
  -36.5243    2.4873  -44.8437 C   0  0  0  0  0  0  0  0  0  0  0  0
  -37.6335    1.9909  -44.7800 O   0  0  0  0  0  0  0  0  0  0  0  0
  -35.3599    1.6455  -45.1377 C   0  0  0  0  0  0  0  0  0  0  0  0
  -35.3916    0.3261  -45.4877 C   0  0  0  0  0  0  0  0  0  0  0  0
  -34.0593   -0.0739  -45.6747 C   0  0  0  0  0  0  0  0  0  0  0  0
  -33.2825    1.0052  -45.4338 C   0  0  0  0  0  0  0  0  0  0  0  0
  -34.0702    2.0406  -45.1154 O   0  0  0  0  0  0  0  0  0  0  0  0
  -34.2674    5.5068  -40.9401 X   0  0  0  0  0  0  0  0  0  0  0  0
  1  2  1  0  0  0  0
  1  7  1  0  0  0  0
  1 15  1  0  0  0  0
  2  3  1  0  0  0  0
  3  4  1  0  0  0  0
  4  5  1  0  0  0  0
  5  6  1  0  0  0  0
  5  8  1  0  0  0  0
  6  7  1  0  0  0  0
  8  9  2  0  0  0  0
  8 10  1  0  0  0  0
 10 11  2  0  0  0  0
 10 14  1  0  0  0  0
 11 12  1  0  0  0  0
 12 13  2  0  0  0  0
 13 14  1  0  0  0  0
M  END
> <Index>
4738

> <PropertyFieldDistance>
nan

$$$$
2367220
BBcorina  12272117083D 1   1.00000     0.00000 
CORINA 4.3.0 0026  30.10.2019
 10 10  0  0  0  0  0  0  0  0999 V2000
  -38.9013    5.7106  -41.7956 N   0  0  0  0  0  0  0  0  0  0  0  0
  -37.6674    6.1252  -42.1448 C   0  0  0  0  0  0  0  0  0  0  0  0
  -37.4079    7.3098  -42.1615 O   0  0  0  0  0  0  0  0  0  0  0  0
  -36.6101    5.1169  -42.5144 C   0  0  0  0  0  0  0  0  0  0  0  0
  -37.0250    4.3873  -43.7948 C   0  0  0  0  0  0  0  0  0  0  0  0
  -35.9555    3.4605  -44.1931 N   0  0  0  0  0  0  0  0  0  0  0  0
  -34.6941    4.1836  -44.4110 C   0  0  0  0  0  0  0  0  0  0  0  0
  -34.3026    4.9152  -43.1244 C   0  0  0  0  0  0  0  0  0  0  0  0
  -35.3668    5.7881  -42.7357 O   0  0  0  0  0  0  0  0  0  0  0  0
  -36.4010    2.5722  -45.5846 X   0  0  0  0  0  0  0  0  0  0  0  0
  1  2  1  0  0  0  0
  2  3  2  0  0  0  0
  2  4  1  0  0  0  0
  4  5  1  0  0  0  0
  4  9  1  0  0  0  0
  5  6  1  0  0  0  0
  6  7  1  0  0  0  0
  6 10  1  0  0  0  0
  7  8  1  0  0  0  0
  8  9  1  0  0  0  0
M  END
> <Index>
4746

> <PropertyFieldDistance>
nan

$$$$
2991094
BBcorina  12272117083D 1   1.00000     0.00000 
CORINA 4.3.0 0026  30.10.2019
 13 14  0  0  0  0  0  0  0  0999 V2000
  -33.9839    8.1445  -38.2632 C   0  0  0  0  0  0  0  0  0  0  0  0
  -34.3838    7.6877  -39.6424 C   0  0  0  0  0  0  0  0  0  0  0  0
  -34.5858    6.4493  -40.0132 N   0  0  0  0  0  0  0  0  0  0  0  0
  -34.9316    6.4133  -41.2993 C   0  0  0  0  0  0  0  0  0  0  0  0
  -34.9546    7.6336  -41.7670 N   0  0  0  0  0  0  0  0  0  0  0  0
  -34.6008    8.4819  -40.7050 N   0  0  0  0  0  0  0  0  0  0  0  0
  -35.2461    5.1676  -42.0870 C   0  0  0  0  0  0  0  0  0  0  0  0
  -36.6793    5.2475  -42.6202 C   0  0  0  0  0  0  0  0  0  0  0  0
  -36.9723    4.0087  -43.4695 C   0  0  0  0  0  0  0  0  0  0  0  0
  -36.0191    3.9414  -44.5845 N   0  0  0  0  0  0  0  0  0  0  0  0
  -34.6396    3.8164  -44.0970 C   0  0  0  0  0  0  0  0  0  0  0  0
  -34.2770    5.0496  -43.2665 C   0  0  0  0  0  0  0  0  0  0  0  0
  -36.4110    2.6622  -45.6494 X   0  0  0  0  0  0  0  0  0  0  0  0
  1  2  1  0  0  0  0
  2  3  2  0  0  0  0
  2  6  1  0  0  0  0
  3  4  1  0  0  0  0
  4  5  2  0  0  0  0
  4  7  1  0  0  0  0
  5  6  1  0  0  0  0
  7  8  1  0  0  0  0
  7 12  1  0  0  0  0
  8  9  1  0  0  0  0
  9 10  1  0  0  0  0
 10 11  1  0  0  0  0
 10 13  1  0  0  0  0
 11 12  1  0  0  0  0
M  END
> <Index>
4779

> <PropertyFieldDistance>
nan

$$$$
16465868
BBcorina  12272117083D 1   1.00000     0.00000 
CORINA 4.3.0 0026  30.10.2019
 13 14  0  0  0  0  0  0  0  0999 V2000
  -33.9839    8.1445  -38.2632 C   0  0  0  0  0  0  0  0  0  0  0  0
  -34.3838    7.6877  -39.6424 C   0  0  0  0  0  0  0  0  0  0  0  0
  -34.5858    6.4493  -40.0132 N   0  0  0  0  0  0  0  0  0  0  0  0
  -34.9316    6.4133  -41.2993 C   0  0  0  0  0  0  0  0  0  0  0  0
  -34.9546    7.6336  -41.7670 N   0  0  0  0  0  0  0  0  0  0  0  0
  -34.6008    8.4819  -40.7050 N   0  0  0  0  0  0  0  0  0  0  0  0
  -35.2461    5.1676  -42.0870 C   0  0  0  0  0  0  0  0  0  0  0  0
  -36.6793    5.2475  -42.6202 C   0  0  0  0  0  0  0  0  0  0  0  0
  -36.9723    4.0087  -43.4695 C   0  0  0  0  0  0  0  0  0  0  0  0
  -36.0191    3.9414  -44.5845 N   0  0  0  0  0  0  0  0  0  0  0  0
  -34.6396    3.8164  -44.0970 C   0  0  0  0  0  0  0  0  0  0  0  0
  -34.2770    5.0496  -43.2665 C   0  0  0  0  0  0  0  0  0  0  0  0
  -36.4110    2.6622  -45.6494 X   0  0  0  0  0  0  0  0  0  0  0  0
  1  2  1  0  0  0  0
  2  3  2  0  0  0  0
  2  6  1  0  0  0  0
  3  4  1  0  0  0  0
  4  5  2  0  0  0  0
  4  7  1  0  0  0  0
  5  6  1  0  0  0  0
  7  8  1  0  0  0  0
  7 12  1  0  0  0  0
  8  9  1  0  0  0  0
  9 10  1  0  0  0  0
 10 11  1  0  0  0  0
 10 13  1  0  0  0  0
 11 12  1  0  0  0  0
M  END
> <Index>
4801

> <PropertyFieldDistance>
nan

$$$$
2759034
BBcorina  12272117083D 1   1.00000     0.00000 
CORINA 4.3.0 0026  30.10.2019
 11 11  0  0  0  0  0  0  0  0999 V2000
  -37.8545    2.6226  -44.9850 N   0  0  0  0  0  0  0  0  0  0  0  0
  -36.5179    2.7949  -45.0006 C   0  0  0  0  0  0  0  0  0  0  0  0
  -35.8597    2.3603  -45.9259 O   0  0  0  0  0  0  0  0  0  0  0  0
  -35.9108    3.4490  -43.9906 N   0  0  0  0  0  0  0  0  0  0  0  0
  -36.7060    3.8520  -42.8511 C   0  0  0  0  0  0  0  0  0  0  0  0
  -37.2600    5.2799  -43.0853 C   0  0  0  0  0  0  0  0  0  0  0  0
  -36.1562    6.2575  -43.0319 C   0  0  0  0  0  0  0  0  0  0  0  0
  -35.1349    6.0716  -44.0623 N   0  0  0  0  0  0  0  0  0  0  0  0
  -34.1186    5.1442  -43.6122 C   0  0  0  0  0  0  0  0  0  0  0  0
  -34.4613    3.7176  -44.0933 C   0  0  0  0  0  0  0  0  0  0  0  0
  -34.4418    7.5679  -44.5151 X   0  0  0  0  0  0  0  0  0  0  0  0
  1  2  1  0  0  0  0
  2  3  2  0  0  0  0
  2  4  1  0  0  0  0
  4  5  1  0  0  0  0
  4 10  1  0  0  0  0
  5  6  1  0  0  0  0
  6  7  1  0  0  0  0
  7  8  1  0  0  0  0
  8  9  1  0  0  0  0
  8 11  1  0  0  0  0
  9 10  1  0  0  0  0
M  END
> <Index>
4808

> <PropertyFieldDistance>
nan

$$$$
2561346
BBcorina  12272117083D 1   1.00000     0.00000 
CORINA 4.3.0 0026  30.10.2019
 15 15  0  0  0  0  0  0  0  0999 V2000
  -36.2862    0.5032  -49.3012 C   0  0  0  0  0  0  0  0  0  0  0  0
  -35.5573    1.3479  -48.2542 C   0  0  0  0  0  0  0  0  0  0  0  0
  -35.0364    2.6304  -48.9061 C   0  0  0  0  0  0  0  0  0  0  0  0
  -36.5250    1.7068  -47.1247 C   0  0  0  0  0  0  0  0  0  0  0  0
  -35.8058    2.4064  -46.0752 O   0  0  0  0  0  0  0  0  0  0  0  0
  -36.5179    2.7950  -45.0006 C   0  0  0  0  0  0  0  0  0  0  0  0
  -37.7087    2.5603  -44.9437 O   0  0  0  0  0  0  0  0  0  0  0  0
  -35.9109    3.4490  -43.9906 N   0  0  0  0  0  0  0  0  0  0  0  0
  -36.7060    3.8519  -42.8511 C   0  0  0  0  0  0  0  0  0  0  0  0
  -37.2600    5.2799  -43.0853 C   0  0  0  0  0  0  0  0  0  0  0  0
  -36.1562    6.2575  -43.0320 C   0  0  0  0  0  0  0  0  0  0  0  0
  -35.1349    6.0717  -44.0624 N   0  0  0  0  0  0  0  0  0  0  0  0
  -34.1186    5.1442  -43.6122 C   0  0  0  0  0  0  0  0  0  0  0  0
  -34.4613    3.7177  -44.0933 C   0  0  0  0  0  0  0  0  0  0  0  0
  -34.4418    7.5679  -44.5151 X   0  0  0  0  0  0  0  0  0  0  0  0
  1  2  1  0  0  0  0
  2  3  1  0  0  0  0
  2  4  1  0  0  0  0
  4  5  1  0  0  0  0
  5  6  1  0  0  0  0
  6  7  2  0  0  0  0
  6  8  1  0  0  0  0
  8  9  1  0  0  0  0
  8 14  1  0  0  0  0
  9 10  1  0  0  0  0
 10 11  1  0  0  0  0
 11 12  1  0  0  0  0
 12 13  1  0  0  0  0
 12 15  1  0  0  0  0
 13 14  1  0  0  0  0
M  END
> <Index>
4809

> <PropertyFieldDistance>
nan

$$$$
2561374
BBcorina  12272117083D 1   1.00000     0.00000 
CORINA 4.3.0 0026  30.10.2019
 12 12  0  0  0  0  0  0  0  0999 V2000
  -36.5251    1.7068  -47.1248 C   0  0  0  0  0  0  0  0  0  0  0  0
  -35.8059    2.4064  -46.0753 O   0  0  0  0  0  0  0  0  0  0  0  0
  -36.5179    2.7950  -45.0006 C   0  0  0  0  0  0  0  0  0  0  0  0
  -37.7078    2.5559  -44.9415 O   0  0  0  0  0  0  0  0  0  0  0  0
  -35.9109    3.4490  -43.9906 N   0  0  0  0  0  0  0  0  0  0  0  0
  -36.7060    3.8519  -42.8511 C   0  0  0  0  0  0  0  0  0  0  0  0
  -37.2600    5.2800  -43.0853 C   0  0  0  0  0  0  0  0  0  0  0  0
  -36.1562    6.2575  -43.0319 C   0  0  0  0  0  0  0  0  0  0  0  0
  -35.1349    6.0716  -44.0622 N   0  0  0  0  0  0  0  0  0  0  0  0
  -34.1187    5.1442  -43.6122 C   0  0  0  0  0  0  0  0  0  0  0  0
  -34.4613    3.7177  -44.0933 C   0  0  0  0  0  0  0  0  0  0  0  0
  -34.4418    7.5679  -44.5150 X   0  0  0  0  0  0  0  0  0  0  0  0
  1  2  1  0  0  0  0
  2  3  1  0  0  0  0
  3  4  2  0  0  0  0
  3  5  1  0  0  0  0
  5  6  1  0  0  0  0
  5 11  1  0  0  0  0
  6  7  1  0  0  0  0
  7  8  1  0  0  0  0
  8  9  1  0  0  0  0
  9 10  1  0  0  0  0
  9 12  1  0  0  0  0
 10 11  1  0  0  0  0
M  END
> <Index>
4810

> <PropertyFieldDistance>
nan

$$$$
14429910
BBcorina  12272117083D 1   1.00000     0.00000 
CORINA 4.3.0 0026  30.10.2019
 11 11  0  0  0  0  0  0  0  0999 V2000
  -31.3496    4.5803  -41.9579 C   0  0  0  0  0  0  0  0  0  0  0  0
  -32.2330    5.8119  -42.1671 C   0  0  0  0  0  0  0  0  0  0  0  0
  -31.3523    7.0579  -42.2805 C   0  0  0  0  0  0  0  0  0  0  0  0
  -33.0140    5.6504  -43.4008 N   0  0  0  0  0  0  0  0  0  0  0  0
  -34.2559    4.9088  -43.1443 C   0  0  0  0  0  0  0  0  0  0  0  0
  -35.3534    5.8833  -42.7080 C   0  0  0  0  0  0  0  0  0  0  0  0
  -36.6587    5.1099  -42.5007 C   0  0  0  0  0  0  0  0  0  0  0  0
  -37.0290    4.3869  -43.7977 C   0  0  0  0  0  0  0  0  0  0  0  0
  -35.9479    3.4664  -44.1723 N   0  0  0  0  0  0  0  0  0  0  0  0
  -34.6959    4.1916  -44.4227 C   0  0  0  0  0  0  0  0  0  0  0  0
  -36.3899    2.5210  -45.5270 X   0  0  0  0  0  0  0  0  0  0  0  0
  1  2  1  0  0  0  0
  2  3  1  0  0  0  0
  2  4  1  0  0  0  0
  4  5  1  0  0  0  0
  5  6  1  0  0  0  0
  5 10  1  0  0  0  0
  6  7  1  0  0  0  0
  7  8  1  0  0  0  0
  8  9  1  0  0  0  0
  9 10  1  0  0  0  0
  9 11  1  0  0  0  0
M  END
> <Index>
4822

> <PropertyFieldDistance>
nan

$$$$
2442858
BBcorina  12272117083D 1   1.00000     0.00000 
CORINA 4.3.0 0026  30.10.2019
 13 13  0  0  0  0  0  0  0  0999 V2000
  -36.0909    9.4481  -39.4653 C   0  0  0  0  0  0  0  0  0  0  0  0
  -35.3802    8.0986  -39.5860 C   0  0  0  0  0  0  0  0  0  0  0  0
  -35.7762    7.2064  -38.4077 C   0  0  0  0  0  0  0  0  0  0  0  0
  -35.7705    7.4516  -40.8411 N   0  0  0  0  0  0  0  0  0  0  0  0
  -34.9521    6.5487  -41.4168 C   0  0  0  0  0  0  0  0  0  0  0  0
  -33.8925    6.2718  -40.8957 O   0  0  0  0  0  0  0  0  0  0  0  0
  -35.3535    5.8833  -42.7079 C   0  0  0  0  0  0  0  0  0  0  0  0
  -36.6585    5.1099  -42.5008 C   0  0  0  0  0  0  0  0  0  0  0  0
  -37.0291    4.3869  -43.7977 C   0  0  0  0  0  0  0  0  0  0  0  0
  -35.9480    3.4664  -44.1723 N   0  0  0  0  0  0  0  0  0  0  0  0
  -34.6958    4.1916  -44.4226 C   0  0  0  0  0  0  0  0  0  0  0  0
  -34.2559    4.9088  -43.1442 C   0  0  0  0  0  0  0  0  0  0  0  0
  -36.3899    2.5211  -45.5270 X   0  0  0  0  0  0  0  0  0  0  0  0
  1  2  1  0  0  0  0
  2  3  1  0  0  0  0
  2  4  1  0  0  0  0
  4  5  1  0  0  0  0
  5  6  2  0  0  0  0
  5  7  1  0  0  0  0
  7  8  1  0  0  0  0
  7 12  1  0  0  0  0
  8  9  1  0  0  0  0
  9 10  1  0  0  0  0
 10 11  1  0  0  0  0
 10 13  1  0  0  0  0
 11 12  1  0  0  0  0
M  END
> <Index>
4823

> <PropertyFieldDistance>
nan

$$$$
13903628
BBcorina  12272117083D 1   1.00000     0.00000 
CORINA 4.3.0 0026  30.10.2019
 13 13  0  0  0  0  0  0  0  0999 V2000
  -33.1248    5.7623  -42.7505 C   0  0  0  0  0  0  0  0  0  0  0  0
  -34.3484    4.8551  -42.8944 C   0  0  0  0  0  0  0  0  0  0  0  0
  -35.6069    5.6270  -42.4919 C   0  0  0  0  0  0  0  0  0  0  0  0
  -36.8274    4.7105  -42.6041 C   0  0  0  0  0  0  0  0  0  0  0  0
  -36.9852    4.2527  -44.0575 C   0  0  0  0  0  0  0  0  0  0  0  0
  -35.7261    3.6376  -44.4989 N   0  0  0  0  0  0  0  0  0  0  0  0
  -34.4781    4.3989  -44.3512 C   0  0  0  0  0  0  0  0  0  0  0  0
  -35.7159    2.3986  -45.0290 C   0  0  0  0  0  0  0  0  0  0  0  0
  -34.6699    1.9017  -45.3893 O   0  0  0  0  0  0  0  0  0  0  0  0
  -37.0043    1.6304  -45.1739 C   0  0  0  0  0  0  0  0  0  0  0  0
  -36.7158    0.2636  -45.7980 C   0  0  0  0  0  0  0  0  0  0  0  0
  -37.9718   -0.4852  -45.9393 N   0  0  0  0  0  0  0  0  0  0  0  0
  -37.6938   -2.0225  -46.6346 X   0  0  0  0  0  0  0  0  0  0  0  0
  1  2  1  0  0  0  0
  2  3  1  0  0  0  0
  2  7  1  0  0  0  0
  3  4  1  0  0  0  0
  4  5  1  0  0  0  0
  5  6  1  0  0  0  0
  6  7  1  0  0  0  0
  6  8  1  0  0  0  0
  8  9  2  0  0  0  0
  8 10  1  0  0  0  0
 10 11  1  0  0  0  0
 11 12  1  0  0  0  0
 12 13  1  0  0  0  0
M  END
> <Index>
4825

> <PropertyFieldDistance>
nan

$$$$
18237872
BBcorina  12272117083D 1   1.00000     0.00000 
CORINA 4.3.0 0026  30.10.2019
 16 17  0  0  0  0  0  0  0  0999 V2000
  -36.5560    2.6423  -44.8963 C   0  0  0  0  0  0  0  0  0  0  0  0
  -35.7574    3.2668  -43.8332 N   0  0  0  0  0  0  0  0  0  0  0  0
  -36.6328    3.8930  -42.8069 C   0  0  0  0  0  0  0  0  0  0  0  0
  -37.1005    5.2135  -43.4612 C   0  0  0  0  0  0  0  0  0  0  0  0
  -36.0016    5.5566  -44.4883 C   0  0  0  0  0  0  0  0  0  0  0  0
  -34.9697    4.4123  -44.3613 C   0  0  0  0  0  0  0  0  0  0  0  0
  -33.9583    4.8097  -43.2742 C   0  0  0  0  0  0  0  0  0  0  0  0
  -34.7228    5.3082  -42.0445 C   0  0  0  0  0  0  0  0  0  0  0  0
  -35.4534    6.6069  -42.3914 C   0  0  0  0  0  0  0  0  0  0  0  0
  -36.1807    7.0876  -41.2139 N   0  0  0  0  0  0  0  0  0  0  0  0
  -36.9015    8.2242  -41.2847 C   0  0  0  0  0  0  0  0  0  0  0  0
  -36.9481    8.8491  -42.3232 O   0  0  0  0  0  0  0  0  0  0  0  0
  -37.6496    8.7187  -40.0735 C   0  0  0  0  0  0  0  0  0  0  0  0
  -38.3511    9.9656  -40.4067 N   0  0  0  0  0  0  0  0  0  0  0  0
  -35.7423    4.2527  -41.6067 C   0  0  0  0  0  0  0  0  0  0  0  0
  -39.2147   10.5623  -39.0567 X   0  0  0  0  0  0  0  0  0  0  0  0
  1  2  1  0  0  0  0
  2  3  1  0  0  0  0
  2  6  1  0  0  0  0
  3  4  1  0  0  0  0
  3 15  1  0  0  0  0
  4  5  1  0  0  0  0
  5  6  1  0  0  0  0
  6  7  1  0  0  0  0
  7  8  1  0  0  0  0
  8  9  1  0  0  0  0
  8 15  1  0  0  0  0
  9 10  1  0  0  0  0
 10 11  1  0  0  0  0
 11 12  2  0  0  0  0
 11 13  1  0  0  0  0
 13 14  1  0  0  0  0
 14 16  1  0  0  0  0
M  END
> <Index>
4826

> <PropertyFieldDistance>
nan

$$$$
16439384
BBcorina  12272117083D 1   1.00000     0.00000 
CORINA 4.3.0 0026  30.10.2019
 11 11  0  0  0  0  0  0  0  0999 V2000
  -30.7388    5.4212  -44.3322 C   0  0  0  0  0  0  0  0  0  0  0  0
  -31.8793    4.7361  -43.7095 N   0  0  0  0  0  0  0  0  0  0  0  0
  -31.4631    4.0143  -42.4996 C   0  0  0  0  0  0  0  0  0  0  0  0
  -32.9630    5.6821  -43.4116 C   0  0  0  0  0  0  0  0  0  0  0  0
  -34.2559    4.9087  -43.1443 C   0  0  0  0  0  0  0  0  0  0  0  0
  -35.3534    5.8832  -42.7079 C   0  0  0  0  0  0  0  0  0  0  0  0
  -36.6586    5.1099  -42.5007 C   0  0  0  0  0  0  0  0  0  0  0  0
  -37.0290    4.3869  -43.7977 C   0  0  0  0  0  0  0  0  0  0  0  0
  -35.9479    3.4664  -44.1723 N   0  0  0  0  0  0  0  0  0  0  0  0
  -34.6959    4.1916  -44.4226 C   0  0  0  0  0  0  0  0  0  0  0  0
  -36.3899    2.5211  -45.5270 X   0  0  0  0  0  0  0  0  0  0  0  0
  1  2  1  0  0  0  0
  2  3  1  0  0  0  0
  2  4  1  0  0  0  0
  4  5  1  0  0  0  0
  5  6  1  0  0  0  0
  5 10  1  0  0  0  0
  6  7  1  0  0  0  0
  7  8  1  0  0  0  0
  8  9  1  0  0  0  0
  9 10  1  0  0  0  0
  9 11  1  0  0  0  0
M  END
> <Index>
4835

> <PropertyFieldDistance>
nan

$$$$
2678724
BBcorina  12272117083D 1   1.00000     0.00000 
CORINA 4.3.0 0026  30.10.2019
 13 13  0  0  0  0  0  0  0  0999 V2000
  -37.7496   -0.5047  -48.4258 C   0  0  0  0  0  0  0  0  0  0  0  0
  -37.7090    0.7418  -47.7282 O   0  0  0  0  0  0  0  0  0  0  0  0
  -36.7881    0.7666  -46.6357 C   0  0  0  0  0  0  0  0  0  0  0  0
  -36.8285    2.1416  -45.9659 C   0  0  0  0  0  0  0  0  0  0  0  0
  -35.8425    2.1682  -44.7962 C   0  0  0  0  0  0  0  0  0  0  0  0
  -35.7902    3.5230  -44.2307 N   0  0  0  0  0  0  0  0  0  0  0  0
  -36.9268    3.7878  -43.4559 C   0  0  0  0  0  0  0  0  0  0  0  0
  -36.9844    5.2700  -43.0227 C   0  0  0  0  0  0  0  0  0  0  0  0
  -35.9970    5.4918  -41.9055 C   0  0  0  0  0  0  0  0  0  0  0  0
  -34.6714    5.9418  -42.3878 N   0  0  0  0  0  0  0  0  0  0  0  0
  -34.2064    5.2347  -43.5988 C   0  0  0  0  0  0  0  0  0  0  0  0
  -34.5068    3.7585  -43.5388 C   0  0  0  0  0  0  0  0  0  0  0  0
  -33.5039    5.8552  -41.1413 X   0  0  0  0  0  0  0  0  0  0  0  0
  1  2  1  0  0  0  0
  2  3  1  0  0  0  0
  3  4  1  0  0  0  0
  4  5  1  0  0  0  0
  5  6  1  0  0  0  0
  6  7  1  0  0  0  0
  6 12  1  0  0  0  0
  7  8  1  0  0  0  0
  8  9  1  0  0  0  0
  9 10  1  0  0  0  0
 10 11  1  0  0  0  0
 10 13  1  0  0  0  0
 11 12  1  0  0  0  0
M  END
> <Index>
4850

> <PropertyFieldDistance>
nan

$$$$
2910052
BBcorina  12272117083D 1   1.00000     0.00000 
CORINA 4.3.0 0026  30.10.2019
 16 16  0  0  0  0  0  0  0  0999 V2000
  -35.0787    7.7427  -39.5266 N   0  0  0  0  0  0  0  0  0  0  0  0
  -35.4209    7.1734  -40.6993 C   0  0  0  0  0  0  0  0  0  0  0  0
  -36.4189    7.5400  -41.2830 O   0  0  0  0  0  0  0  0  0  0  0  0
  -34.5637    6.0812  -41.2852 C   0  0  0  0  0  0  0  0  0  0  0  0
  -35.1703    5.6115  -42.6090 C   0  0  0  0  0  0  0  0  0  0  0  0
  -36.5342    4.9628  -42.3431 C   0  0  0  0  0  0  0  0  0  0  0  0
  -37.1506    4.5248  -43.6753 C   0  0  0  0  0  0  0  0  0  0  0  0
  -36.1956    3.6585  -44.3795 N   0  0  0  0  0  0  0  0  0  0  0  0
  -34.8297    4.1503  -44.6060 C   0  0  0  0  0  0  0  0  0  0  0  0
  -34.2360    4.5923  -43.2648 C   0  0  0  0  0  0  0  0  0  0  0  0
  -36.5654    2.4360  -44.8098 C   0  0  0  0  0  0  0  0  0  0  0  0
  -37.6959    2.0415  -44.6170 O   0  0  0  0  0  0  0  0  0  0  0  0
  -35.5741    1.5591  -45.5305 C   0  0  0  0  0  0  0  0  0  0  0  0
  -36.2436    0.2361  -45.9079 C   0  0  0  0  0  0  0  0  0  0  0  0
  -35.2773   -0.6187  -46.6105 N   0  0  0  0  0  0  0  0  0  0  0  0
  -35.9863   -2.1111  -47.0513 X   0  0  0  0  0  0  0  0  0  0  0  0
  1  2  1  0  0  0  0
  2  3  2  0  0  0  0
  2  4  1  0  0  0  0
  4  5  1  0  0  0  0
  5  6  1  0  0  0  0
  5 10  1  0  0  0  0
  6  7  1  0  0  0  0
  7  8  1  0  0  0  0
  8  9  1  0  0  0  0
  8 11  1  0  0  0  0
  9 10  1  0  0  0  0
 11 12  2  0  0  0  0
 11 13  1  0  0  0  0
 13 14  1  0  0  0  0
 14 15  1  0  0  0  0
 15 16  1  0  0  0  0
M  END
> <Index>
4855

> <PropertyFieldDistance>
nan

$$$$
2663242
BBcorina  12272117083D 1   1.00000     0.00000 
CORINA 4.3.0 0026  30.10.2019
 13 13  0  0  0  0  0  0  0  0999 V2000
  -38.4464    3.7624  -43.4232 C   0  0  0  0  0  0  0  0  0  0  0  0
  -36.9872    3.9579  -43.0068 C   0  0  0  0  0  0  0  0  0  0  0  0
  -36.6744    5.4550  -42.9188 C   0  0  0  0  0  0  0  0  0  0  0  0
  -35.1819    5.6446  -42.6389 C   0  0  0  0  0  0  0  0  0  0  0  0
  -34.3657    5.0475  -43.7875 C   0  0  0  0  0  0  0  0  0  0  0  0
  -34.6524    3.5458  -43.8855 C   0  0  0  0  0  0  0  0  0  0  0  0
  -36.1030    3.3483  -44.0095 N   0  0  0  0  0  0  0  0  0  0  0  0
  -36.6128    2.6213  -45.0233 C   0  0  0  0  0  0  0  0  0  0  0  0
  -37.8144    2.5413  -45.1679 O   0  0  0  0  0  0  0  0  0  0  0  0
  -35.6900    1.9080  -45.9776 C   0  0  0  0  0  0  0  0  0  0  0  0
  -36.5178    1.1623  -47.0262 C   0  0  0  0  0  0  0  0  0  0  0  0
  -35.6183    0.4670  -47.9564 N   0  0  0  0  0  0  0  0  0  0  0  0
  -36.5047   -0.3811  -49.1476 X   0  0  0  0  0  0  0  0  0  0  0  0
  1  2  1  0  0  0  0
  2  3  1  0  0  0  0
  2  7  1  0  0  0  0
  3  4  1  0  0  0  0
  4  5  1  0  0  0  0
  5  6  1  0  0  0  0
  6  7  1  0  0  0  0
  7  8  1  0  0  0  0
  8  9  2  0  0  0  0
  8 10  1  0  0  0  0
 10 11  1  0  0  0  0
 11 12  1  0  0  0  0
 12 13  1  0  0  0  0
M  END
> <Index>
4858

> <PropertyFieldDistance>
nan

$$$$
2910282
BBcorina  12272117083D 1   1.00000     0.00000 
CORINA 4.3.0 0026  30.10.2019
 11 12  0  0  0  0  0  0  0  0999 V2000
  -37.4894    0.6520  -46.0431 N   0  0  0  0  0  0  0  0  0  0  0  0
  -36.0642    0.5380  -46.4216 C   0  0  0  0  0  0  0  0  0  0  0  0
  -35.2812    1.5247  -45.5357 C   0  0  0  0  0  0  0  0  0  0  0  0
  -36.3510    2.2197  -44.6625 C   0  0  0  0  0  0  0  0  0  0  0  0
  -37.6529    2.0213  -45.4787 C   0  0  0  0  0  0  0  0  0  0  0  0
  -36.0473    3.6486  -44.5075 N   0  0  0  0  0  0  0  0  0  0  0  0
  -37.0948    4.3295  -43.7244 C   0  0  0  0  0  0  0  0  0  0  0  0
  -36.4025    4.9957  -42.5168 C   0  0  0  0  0  0  0  0  0  0  0  0
  -34.9315    5.1341  -42.9899 C   0  0  0  0  0  0  0  0  0  0  0  0
  -34.7494    3.8437  -43.8272 C   0  0  0  0  0  0  0  0  0  0  0  0
  -38.5040    0.4243  -47.4007 X   0  0  0  0  0  0  0  0  0  0  0  0
  1  2  1  0  0  0  0
  1  5  1  0  0  0  0
  1 11  1  0  0  0  0
  2  3  1  0  0  0  0
  3  4  1  0  0  0  0
  4  5  1  0  0  0  0
  4  6  1  0  0  0  0
  6  7  1  0  0  0  0
  6 10  1  0  0  0  0
  7  8  1  0  0  0  0
  8  9  1  0  0  0  0
  9 10  1  0  0  0  0
M  END
> <Index>
4868

> <PropertyFieldDistance>
nan

$$$$
3191542
BBcorina  12272117083D 1   1.00000     0.00000 
CORINA 4.3.0 0026  30.10.2019
 16 17  0  0  0  0  0  0  0  0999 V2000
  -33.6215    6.9970  -41.2892 C   0  0  0  0  0  0  0  0  0  0  0  0
  -34.9718    6.8757  -41.8546 N   0  0  0  0  0  0  0  0  0  0  0  0
  -35.2420    5.4962  -42.2811 C   0  0  0  0  0  0  0  0  0  0  0  0
  -36.6957    5.3803  -42.7480 C   0  0  0  0  0  0  0  0  0  0  0  0
  -36.9539    3.9570  -43.2478 C   0  0  0  0  0  0  0  0  0  0  0  0
  -36.0394    3.6526  -44.3557 N   0  0  0  0  0  0  0  0  0  0  0  0
  -34.6385    3.7112  -43.9193 C   0  0  0  0  0  0  0  0  0  0  0  0
  -34.3112    5.1271  -43.4396 C   0  0  0  0  0  0  0  0  0  0  0  0
  -36.3360    2.4094  -44.9228 C   0  0  0  0  0  0  0  0  0  0  0  0
  -35.5838    1.9344  -45.9892 C   0  0  0  0  0  0  0  0  0  0  0  0
  -35.8785    0.7061  -46.5480 C   0  0  0  0  0  0  0  0  0  0  0  0
  -36.9227   -0.0517  -46.0454 C   0  0  0  0  0  0  0  0  0  0  0  0
  -37.2089   -1.2530  -46.5932 F   0  0  0  0  0  0  0  0  0  0  0  0
  -37.6737    0.4198  -44.9819 C   0  0  0  0  0  0  0  0  0  0  0  0
  -37.3795    1.6454  -44.4170 C   0  0  0  0  0  0  0  0  0  0  0  0
  -36.1528    7.4156  -40.7421 X   0  0  0  0  0  0  0  0  0  0  0  0
  1  2  1  0  0  0  0
  2  3  1  0  0  0  0
  2 16  1  0  0  0  0
  3  4  1  0  0  0  0
  3  8  1  0  0  0  0
  4  5  1  0  0  0  0
  5  6  1  0  0  0  0
  6  7  1  0  0  0  0
  6  9  1  0  0  0  0
  7  8  1  0  0  0  0
  9 10  2  0  0  0  0
  9 15  1  0  0  0  0
 10 11  1  0  0  0  0
 11 12  2  0  0  0  0
 12 13  1  0  0  0  0
 12 14  1  0  0  0  0
 14 15  2  0  0  0  0
M  END
> <Index>
4902

> <PropertyFieldDistance>
nan

$$$$
2678656
BBcorina  12272117083D 1   1.00000     0.00000 
CORINA 4.3.0 0026  30.10.2019
 16 17  0  0  0  0  0  0  0  0999 V2000
  -33.6215    6.9970  -41.2892 C   0  0  0  0  0  0  0  0  0  0  0  0
  -34.9719    6.8756  -41.8547 N   0  0  0  0  0  0  0  0  0  0  0  0
  -35.2421    5.4961  -42.2812 C   0  0  0  0  0  0  0  0  0  0  0  0
  -36.6957    5.3802  -42.7480 C   0  0  0  0  0  0  0  0  0  0  0  0
  -36.9539    3.9570  -43.2478 C   0  0  0  0  0  0  0  0  0  0  0  0
  -36.0395    3.6524  -44.3557 N   0  0  0  0  0  0  0  0  0  0  0  0
  -34.6386    3.7111  -43.9193 C   0  0  0  0  0  0  0  0  0  0  0  0
  -34.3113    5.1270  -43.4396 C   0  0  0  0  0  0  0  0  0  0  0  0
  -36.3358    2.4100  -44.9226 C   0  0  0  0  0  0  0  0  0  0  0  0
  -35.5836    1.9347  -45.9891 C   0  0  0  0  0  0  0  0  0  0  0  0
  -35.8787    0.7064  -46.5475 C   0  0  0  0  0  0  0  0  0  0  0  0
  -36.9227   -0.0505  -46.0453 C   0  0  0  0  0  0  0  0  0  0  0  0
  -37.2904   -1.5942  -46.7492 Cl  0  0  0  0  0  0  0  0  0  0  0  0
  -37.6737    0.4206  -44.9828 C   0  0  0  0  0  0  0  0  0  0  0  0
  -37.3794    1.6456  -44.4169 C   0  0  0  0  0  0  0  0  0  0  0  0
  -36.1529    7.4156  -40.7422 X   0  0  0  0  0  0  0  0  0  0  0  0
  1  2  1  0  0  0  0
  2  3  1  0  0  0  0
  2 16  1  0  0  0  0
  3  4  1  0  0  0  0
  3  8  1  0  0  0  0
  4  5  1  0  0  0  0
  5  6  1  0  0  0  0
  6  7  1  0  0  0  0
  6  9  1  0  0  0  0
  7  8  1  0  0  0  0
  9 10  2  0  0  0  0
  9 15  1  0  0  0  0
 10 11  1  0  0  0  0
 11 12  2  0  0  0  0
 12 13  1  0  0  0  0
 12 14  1  0  0  0  0
 14 15  2  0  0  0  0
M  END
> <Index>
4904

> <PropertyFieldDistance>
nan

$$$$
2536498
BBcorina  12272117083D 1   1.00000     0.00000 
CORINA 4.3.0 0026  30.10.2019
  8  8  0  0  0  0  0  0  0  0999 V2000
  -36.9046    3.9688  -45.2642 N   0  0  0  0  0  0  0  0  0  0  0  0
  -36.1864    3.4882  -44.0762 C   0  0  0  0  0  0  0  0  0  0  0  0
  -36.1657    1.9625  -44.0846 C   0  0  0  0  0  0  0  0  0  0  0  0
  -35.6695    1.4393  -42.7341 C   0  0  0  0  0  0  0  0  0  0  0  0
  -33.9572    1.9942  -42.4828 S   0  0  0  0  0  0  0  0  0  0  0  0
  -34.0932    3.7888  -42.7365 C   0  0  0  0  0  0  0  0  0  0  0  0
  -34.7669    4.0475  -44.0867 C   0  0  0  0  0  0  0  0  0  0  0  0
  -37.6734    5.4640  -44.9523 X   0  0  0  0  0  0  0  0  0  0  0  0
  1  2  1  0  0  0  0
  1  8  1  0  0  0  0
  2  3  1  0  0  0  0
  2  7  1  0  0  0  0
  3  4  1  0  0  0  0
  4  5  1  0  0  0  0
  5  6  1  0  0  0  0
  6  7  1  0  0  0  0
M  END
> <Index>
4906

> <PropertyFieldDistance>
nan

$$$$
2536216
BBcorina  12272117083D 1   1.00000     0.00000 
CORINA 4.3.0 0026  30.10.2019
 13 13  0  0  0  0  0  0  0  0999 V2000
  -35.5842    0.5166  -48.0456 C   0  0  0  0  0  0  0  0  0  0  0  0
  -36.5182    1.1637  -47.0211 C   0  0  0  0  0  0  0  0  0  0  0  0
  -35.6912    1.9502  -46.0021 C   0  0  0  0  0  0  0  0  0  0  0  0
  -36.6112    2.5875  -44.9930 C   0  0  0  0  0  0  0  0  0  0  0  0
  -37.8105    2.4283  -45.0802 O   0  0  0  0  0  0  0  0  0  0  0  0
  -36.1015    3.3343  -43.9936 N   0  0  0  0  0  0  0  0  0  0  0  0
  -36.9857    3.9621  -43.0022 C   0  0  0  0  0  0  0  0  0  0  0  0
  -36.6785    5.4617  -42.9426 C   0  0  0  0  0  0  0  0  0  0  0  0
  -35.1867    5.6621  -42.6661 C   0  0  0  0  0  0  0  0  0  0  0  0
  -34.3681    5.0462  -43.8031 C   0  0  0  0  0  0  0  0  0  0  0  0
  -34.6492    3.5419  -43.8725 C   0  0  0  0  0  0  0  0  0  0  0  0
  -34.8945    7.0989  -42.5753 N   0  0  0  0  0  0  0  0  0  0  0  0
  -35.3949    7.9167  -43.9912 X   0  0  0  0  0  0  0  0  0  0  0  0
  1  2  1  0  0  0  0
  2  3  1  0  0  0  0
  3  4  1  0  0  0  0
  4  5  2  0  0  0  0
  4  6  1  0  0  0  0
  6  7  1  0  0  0  0
  6 11  1  0  0  0  0
  7  8  1  0  0  0  0
  8  9  1  0  0  0  0
  9 10  1  0  0  0  0
  9 12  1  0  0  0  0
 10 11  1  0  0  0  0
 12 13  1  0  0  0  0
M  END
> <Index>
4907

> <PropertyFieldDistance>
nan

$$$$
2531256
BBcorina  12272117083D 1   1.00000     0.00000 
CORINA 4.3.0 0026  30.10.2019
  9  9  0  0  0  0  0  0  0  0999 V2000
  -36.2368    2.6047  -45.2229 N   0  0  0  0  0  0  0  0  0  0  0  0
  -35.9632    3.6392  -44.3740 N   0  0  0  0  0  0  0  0  0  0  0  0
  -37.0855    4.3071  -43.7270 C   0  0  0  0  0  0  0  0  0  0  0  0
  -36.6104    5.0833  -42.4981 C   0  0  0  0  0  0  0  0  0  0  0  0
  -35.4238    5.9660  -42.9034 C   0  0  0  0  0  0  0  0  0  0  0  0
  -34.2409    5.0579  -43.2488 C   0  0  0  0  0  0  0  0  0  0  0  0
  -34.6873    3.9761  -44.1899 C   0  0  0  0  0  0  0  0  0  0  0  0
  -33.8405    3.3745  -44.8158 O   0  0  0  0  0  0  0  0  0  0  0  0
  -36.3746    1.1303  -44.3677 X   0  0  0  0  0  0  0  0  0  0  0  0
  1  2  1  0  0  0  0
  1  9  1  0  0  0  0
  2  3  1  0  0  0  0
  2  7  1  0  0  0  0
  3  4  1  0  0  0  0
  4  5  1  0  0  0  0
  5  6  1  0  0  0  0
  6  7  1  0  0  0  0
  7  8  2  0  0  0  0
M  END
> <Index>
4908

> <PropertyFieldDistance>
nan

$$$$
7866820
BBcorina  12272117083D 1   1.00000     0.00000 
CORINA 4.3.0 0026  30.10.2019
  8  8  0  0  0  0  0  0  0  0999 V2000
  -32.7331    5.2519  -42.1203 O   0  0  0  0  0  0  0  0  0  0  0  0
  -34.1042    5.6523  -42.1633 C   0  0  0  0  0  0  0  0  0  0  0  0
  -34.9803    4.4380  -42.4781 C   0  0  0  0  0  0  0  0  0  0  0  0
  -36.4720    4.8297  -42.4412 C   0  0  0  0  0  0  0  0  0  0  0  0
  -36.9954    4.5500  -43.8664 C   0  0  0  0  0  0  0  0  0  0  0  0
  -36.0642    3.5302  -44.4138 N   0  0  0  0  0  0  0  0  0  0  0  0
  -34.7261    3.9531  -43.9215 C   0  0  0  0  0  0  0  0  0  0  0  0
  -36.1112    3.5122  -46.1231 X   0  0  0  0  0  0  0  0  0  0  0  0
  1  2  1  0  0  0  0
  2  3  1  0  0  0  0
  3  4  1  0  0  0  0
  3  7  1  0  0  0  0
  4  5  1  0  0  0  0
  5  6  1  0  0  0  0
  6  7  1  0  0  0  0
  6  8  1  0  0  0  0
M  END
> <Index>
4913

> <PropertyFieldDistance>
nan

$$$$
2562600
BBcorina  12272117083D 1   1.00000     0.00000 
CORINA 4.3.0 0026  30.10.2019
 10 10  0  0  0  0  0  0  0  0999 V2000
  -33.4946    6.3510  -40.7550 C   0  0  0  0  0  0  0  0  0  0  0  0
  -34.9269    6.4322  -41.2872 C   0  0  0  0  0  0  0  0  0  0  0  0
  -35.2461    5.1676  -42.0869 C   0  0  0  0  0  0  0  0  0  0  0  0
  -35.1048    3.9415  -41.1827 C   0  0  0  0  0  0  0  0  0  0  0  0
  -36.6793    5.2476  -42.6202 C   0  0  0  0  0  0  0  0  0  0  0  0
  -36.9723    4.0087  -43.4695 C   0  0  0  0  0  0  0  0  0  0  0  0
  -36.0191    3.9414  -44.5845 N   0  0  0  0  0  0  0  0  0  0  0  0
  -34.6396    3.8164  -44.0970 C   0  0  0  0  0  0  0  0  0  0  0  0
  -34.2770    5.0495  -43.2665 C   0  0  0  0  0  0  0  0  0  0  0  0
  -36.4110    2.6622  -45.6495 X   0  0  0  0  0  0  0  0  0  0  0  0
  1  2  1  0  0  0  0
  2  3  1  0  0  0  0
  3  4  1  0  0  0  0
  3  5  1  0  0  0  0
  3  9  1  0  0  0  0
  5  6  1  0  0  0  0
  6  7  1  0  0  0  0
  7  8  1  0  0  0  0
  7 10  1  0  0  0  0
  8  9  1  0  0  0  0
M  END
> <Index>
4958

> <PropertyFieldDistance>
nan

$$$$
2562402
BBcorina  12272117083D 1   1.00000     0.00000 
CORINA 4.3.0 0026  30.10.2019
 16 17  0  0  0  0  0  0  0  0999 V2000
  -33.1811    5.7822  -42.8498 N   0  0  0  0  0  0  0  0  0  0  0  0
  -34.4234    5.2977  -43.4662 C   0  0  0  0  0  0  0  0  0  0  0  0
  -35.6166    5.7038  -42.5980 C   0  0  0  0  0  0  0  0  0  0  0  0
  -36.9139    5.2281  -43.2560 C   0  0  0  0  0  0  0  0  0  0  0  0
  -36.8951    3.7048  -43.3706 C   0  0  0  0  0  0  0  0  0  0  0  0
  -35.6739    3.2929  -44.0761 N   0  0  0  0  0  0  0  0  0  0  0  0
  -34.3761    3.7707  -43.5798 C   0  0  0  0  0  0  0  0  0  0  0  0
  -35.7433    2.4967  -45.1613 C   0  0  0  0  0  0  0  0  0  0  0  0
  -34.7232    2.1105  -45.6979 O   0  0  0  0  0  0  0  0  0  0  0  0
  -37.0599    2.0929  -45.6990 C   0  0  0  0  0  0  0  0  0  0  0  0
  -38.0278    1.5530  -44.8505 C   0  0  0  0  0  0  0  0  0  0  0  0
  -39.2526    1.1734  -45.3596 C   0  0  0  0  0  0  0  0  0  0  0  0
  -39.5262    1.3368  -46.7060 C   0  0  0  0  0  0  0  0  0  0  0  0
  -38.5729    1.8758  -47.5516 C   0  0  0  0  0  0  0  0  0  0  0  0
  -37.3423    2.2547  -47.0562 C   0  0  0  0  0  0  0  0  0  0  0  0
  -31.9962    6.1126  -44.0376 X   0  0  0  0  0  0  0  0  0  0  0  0
  1  2  1  0  0  0  0
  1 16  1  0  0  0  0
  2  3  1  0  0  0  0
  2  7  1  0  0  0  0
  3  4  1  0  0  0  0
  4  5  1  0  0  0  0
  5  6  1  0  0  0  0
  6  7  1  0  0  0  0
  6  8  1  0  0  0  0
  8  9  2  0  0  0  0
  8 10  1  0  0  0  0
 10 11  2  0  0  0  0
 10 15  1  0  0  0  0
 11 12  1  0  0  0  0
 12 13  2  0  0  0  0
 13 14  1  0  0  0  0
 14 15  2  0  0  0  0
M  END
> <Index>
4984

> <PropertyFieldDistance>
nan

$$$$
2663950
BBcorina  12272117083D 1   1.00000     0.00000 
CORINA 4.3.0 0026  30.10.2019
 13 14  0  0  0  0  0  0  0  0999 V2000
  -36.0051    3.6171  -44.3789 N   0  0  0  0  0  0  0  0  0  0  0  0
  -37.0060    4.4932  -43.7542 C   0  0  0  0  0  0  0  0  0  0  0  0
  -36.5673    4.8277  -42.3266 C   0  0  0  0  0  0  0  0  0  0  0  0
  -35.2503    5.4787  -42.3615 N   0  0  0  0  0  0  0  0  0  0  0  0
  -34.2493    4.6027  -42.9862 C   0  0  0  0  0  0  0  0  0  0  0  0
  -34.6880    4.2681  -44.4138 C   0  0  0  0  0  0  0  0  0  0  0  0
  -34.8502    5.8624  -41.0862 C   0  0  0  0  0  0  0  0  0  0  0  0
  -33.6243    6.5001  -40.8989 C   0  0  0  0  0  0  0  0  0  0  0  0
  -33.2746    6.8675  -39.6091 C   0  0  0  0  0  0  0  0  0  0  0  0
  -34.1648    6.5785  -38.5844 C   0  0  0  0  0  0  0  0  0  0  0  0
  -35.3040    5.9718  -38.8521 N   0  0  0  0  0  0  0  0  0  0  0  0
  -35.6344    5.6287  -40.0439 N   0  0  0  0  0  0  0  0  0  0  0  0
  -36.4970    3.1451  -45.9471 X   0  0  0  0  0  0  0  0  0  0  0  0
  1  2  1  0  0  0  0
  1  6  1  0  0  0  0
  1 13  1  0  0  0  0
  2  3  1  0  0  0  0
  3  4  1  0  0  0  0
  4  5  1  0  0  0  0
  4  7  1  0  0  0  0
  5  6  1  0  0  0  0
  7  8  2  0  0  0  0
  7 12  1  0  0  0  0
  8  9  1  0  0  0  0
  9 10  2  0  0  0  0
 10 11  1  0  0  0  0
 11 12  2  0  0  0  0
M  END
> <Index>
4989

> <PropertyFieldDistance>
nan

$$$$
2562230
BBcorina  12272117083D 1   1.00000     0.00000 
CORINA 4.3.0 0026  30.10.2019
 16 17  0  0  0  0  0  0  0  0999 V2000
  -34.8246    6.9573  -42.1338 N   0  0  0  0  0  0  0  0  0  0  0  0
  -35.1631    5.5578  -42.4253 C   0  0  0  0  0  0  0  0  0  0  0  0
  -36.6430    5.4577  -42.8054 C   0  0  0  0  0  0  0  0  0  0  0  0
  -36.9748    4.0081  -43.1668 C   0  0  0  0  0  0  0  0  0  0  0  0
  -36.1324    3.5770  -44.2897 N   0  0  0  0  0  0  0  0  0  0  0  0
  -36.5188    2.2379  -44.7540 C   0  0  0  0  0  0  0  0  0  0  0  0
  -35.7986    1.9261  -46.0674 C   0  0  0  0  0  0  0  0  0  0  0  0
  -36.1950    0.5524  -46.5437 C   0  0  0  0  0  0  0  0  0  0  0  0
  -37.2889    0.3787  -47.3778 C   0  0  0  0  0  0  0  0  0  0  0  0
  -37.6221   -0.8962  -47.7948 C   0  0  0  0  0  0  0  0  0  0  0  0
  -36.9165   -1.9395  -47.4043 N   0  0  0  0  0  0  0  0  0  0  0  0
  -35.8674   -1.8113  -46.6157 C   0  0  0  0  0  0  0  0  0  0  0  0
  -35.4744   -0.5677  -46.1586 C   0  0  0  0  0  0  0  0  0  0  0  0
  -34.7088    3.6196  -43.9322 C   0  0  0  0  0  0  0  0  0  0  0  0
  -34.3091    5.0575  -43.5937 C   0  0  0  0  0  0  0  0  0  0  0  0
  -35.2109    7.9695  -43.4567 X   0  0  0  0  0  0  0  0  0  0  0  0
  1  2  1  0  0  0  0
  1 16  1  0  0  0  0
  2  3  1  0  0  0  0
  2 15  1  0  0  0  0
  3  4  1  0  0  0  0
  4  5  1  0  0  0  0
  5  6  1  0  0  0  0
  5 14  1  0  0  0  0
  6  7  1  0  0  0  0
  7  8  1  0  0  0  0
  8  9  2  0  0  0  0
  8 13  1  0  0  0  0
  9 10  1  0  0  0  0
 10 11  2  0  0  0  0
 11 12  1  0  0  0  0
 12 13  2  0  0  0  0
 14 15  1  0  0  0  0
M  END
> <Index>
4990

> <PropertyFieldDistance>
nan

$$$$
2542730
BBcorina  12272117083D 1   1.00000     0.00000 
CORINA 4.3.0 0026  30.10.2019
 12 13  0  0  0  0  0  0  0  0999 V2000
  -35.9986    2.2194  -46.4953 C   0  0  0  0  0  0  0  0  0  0  0  0
  -36.6431    3.0224  -45.3949 C   0  0  0  0  0  0  0  0  0  0  0  0
  -37.9267    3.1790  -45.1959 N   0  0  0  0  0  0  0  0  0  0  0  0
  -38.1193    3.9272  -44.1640 N   0  0  0  0  0  0  0  0  0  0  0  0
  -36.9737    4.2771  -43.6630 C   0  0  0  0  0  0  0  0  0  0  0  0
  -36.7001    5.1425  -42.4587 C   0  0  0  0  0  0  0  0  0  0  0  0
  -35.2371    4.9356  -42.0443 C   0  0  0  0  0  0  0  0  0  0  0  0
  -34.3386    5.0635  -43.2779 C   0  0  0  0  0  0  0  0  0  0  0  0
  -34.5687    3.8662  -44.2075 C   0  0  0  0  0  0  0  0  0  0  0  0
  -36.0062    3.7144  -44.4306 N   0  0  0  0  0  0  0  0  0  0  0  0
  -32.9313    5.0928  -42.8572 N   0  0  0  0  0  0  0  0  0  0  0  0
  -32.5123    3.6623  -42.0192 X   0  0  0  0  0  0  0  0  0  0  0  0
  1  2  1  0  0  0  0
  2  3  2  0  0  0  0
  2 10  1  0  0  0  0
  3  4  1  0  0  0  0
  4  5  2  0  0  0  0
  5  6  1  0  0  0  0
  5 10  1  0  0  0  0
  6  7  1  0  0  0  0
  7  8  1  0  0  0  0
  8  9  1  0  0  0  0
  8 11  1  0  0  0  0
  9 10  1  0  0  0  0
 11 12  1  0  0  0  0
M  END
> <Index>
4995

> <PropertyFieldDistance>
nan

$$$$
2542750
BBcorina  12272117083D 1   1.00000     0.00000 
CORINA 4.3.0 0026  30.10.2019
 13 14  0  0  0  0  0  0  0  0999 V2000
  -35.3948    0.5459  -45.4753 C   0  0  0  0  0  0  0  0  0  0  0  0
  -35.9392    1.8118  -46.1403 C   0  0  0  0  0  0  0  0  0  0  0  0
  -36.5937    2.6839  -45.1000 C   0  0  0  0  0  0  0  0  0  0  0  0
  -37.8495    2.6491  -44.7345 N   0  0  0  0  0  0  0  0  0  0  0  0
  -38.0622    3.5349  -43.8225 N   0  0  0  0  0  0  0  0  0  0  0  0
  -36.9580    4.1692  -43.5691 C   0  0  0  0  0  0  0  0  0  0  0  0
  -36.7210    5.2855  -42.5832 C   0  0  0  0  0  0  0  0  0  0  0  0
  -35.3860    5.9566  -42.9334 C   0  0  0  0  0  0  0  0  0  0  0  0
  -34.3119    4.8811  -43.1190 C   0  0  0  0  0  0  0  0  0  0  0  0
  -34.6002    4.0817  -44.3952 C   0  0  0  0  0  0  0  0  0  0  0  0
  -35.9962    3.6462  -44.3712 N   0  0  0  0  0  0  0  0  0  0  0  0
  -32.9937    5.5199  -43.2292 N   0  0  0  0  0  0  0  0  0  0  0  0
  -32.2653    5.6914  -41.6917 X   0  0  0  0  0  0  0  0  0  0  0  0
  1  2  1  0  0  0  0
  2  3  1  0  0  0  0
  3  4  2  0  0  0  0
  3 11  1  0  0  0  0
  4  5  1  0  0  0  0
  5  6  2  0  0  0  0
  6  7  1  0  0  0  0
  6 11  1  0  0  0  0
  7  8  1  0  0  0  0
  8  9  1  0  0  0  0
  9 10  1  0  0  0  0
  9 12  1  0  0  0  0
 10 11  1  0  0  0  0
 12 13  1  0  0  0  0
M  END
> <Index>
4996

> <PropertyFieldDistance>
nan

$$$$
2542876
BBcorina  12272117083D 1   1.00000     0.00000 
CORINA 4.3.0 0026  30.10.2019
 12 13  0  0  0  0  0  0  0  0999 V2000
  -34.3816    2.1569  -47.3133 C   0  0  0  0  0  0  0  0  0  0  0  0
  -34.8008    2.8887  -46.0643 C   0  0  0  0  0  0  0  0  0  0  0  0
  -36.0538    2.9597  -45.5709 C   0  0  0  0  0  0  0  0  0  0  0  0
  -35.9861    3.7138  -44.4374 N   0  0  0  0  0  0  0  0  0  0  0  0
  -37.0819    4.0828  -43.5384 C   0  0  0  0  0  0  0  0  0  0  0  0
  -36.6304    5.2597  -42.6665 C   0  0  0  0  0  0  0  0  0  0  0  0
  -35.2743    4.9358  -42.0329 C   0  0  0  0  0  0  0  0  0  0  0  0
  -34.1960    4.9270  -43.1238 C   0  0  0  0  0  0  0  0  0  0  0  0
  -34.6929    4.0804  -44.2717 C   0  0  0  0  0  0  0  0  0  0  0  0
  -33.9908    3.5788  -45.2452 N   0  0  0  0  0  0  0  0  0  0  0  0
  -37.6220    5.4935  -41.6081 N   0  0  0  0  0  0  0  0  0  0  0  0
  -38.8195    6.5999  -42.1239 X   0  0  0  0  0  0  0  0  0  0  0  0
  1  2  1  0  0  0  0
  2  3  2  0  0  0  0
  2 10  1  0  0  0  0
  3  4  1  0  0  0  0
  4  5  1  0  0  0  0
  4  9  1  0  0  0  0
  5  6  1  0  0  0  0
  6  7  1  0  0  0  0
  6 11  1  0  0  0  0
  7  8  1  0  0  0  0
  8  9  1  0  0  0  0
  9 10  2  0  0  0  0
 11 12  1  0  0  0  0
M  END
> <Index>
4998

> <PropertyFieldDistance>
nan

$$$$
5344898
BBcorina  12272117083D 1   1.00000     0.00000 
CORINA 4.3.0 0026  30.10.2019
 10 11  0  0  0  0  0  0  0  0999 V2000
  -35.9511    3.4799  -44.1372 N   0  0  0  0  0  0  0  0  0  0  0  0
  -36.9616    4.5002  -43.8239 C   0  0  0  0  0  0  0  0  0  0  0  0
  -36.6959    5.0781  -42.4279 C   0  0  0  0  0  0  0  0  0  0  0  0
  -35.2821    5.4544  -42.3490 N   0  0  0  0  0  0  0  0  0  0  0  0
  -34.6672    6.2645  -41.4454 C   0  0  0  0  0  0  0  0  0  0  0  0
  -33.3629    6.3066  -41.7887 C   0  0  0  0  0  0  0  0  0  0  0  0
  -33.1928    5.5371  -42.8770 N   0  0  0  0  0  0  0  0  0  0  0  0
  -34.3353    5.0219  -43.2186 C   0  0  0  0  0  0  0  0  0  0  0  0
  -34.6315    4.0919  -44.3709 C   0  0  0  0  0  0  0  0  0  0  0  0
  -35.8690    2.2993  -42.9030 X   0  0  0  0  0  0  0  0  0  0  0  0
  1  2  1  0  0  0  0
  1  9  1  0  0  0  0
  1 10  1  0  0  0  0
  2  3  1  0  0  0  0
  3  4  1  0  0  0  0
  4  5  1  0  0  0  0
  4  8  1  0  0  0  0
  5  6  2  0  0  0  0
  6  7  1  0  0  0  0
  7  8  2  0  0  0  0
  8  9  1  0  0  0  0
M  END
> <Index>
5004

> <PropertyFieldDistance>
nan

$$$$
5344902
BBcorina  12272117083D 1   1.00000     0.00000 
CORINA 4.3.0 0026  30.10.2019
 10 10  0  0  0  0  0  0  0  0999 V2000
  -35.2547    5.7265  -42.7100 N   0  0  0  0  0  0  0  0  0  0  0  0
  -36.5131    5.0763  -42.3186 C   0  0  0  0  0  0  0  0  0  0  0  0
  -37.0911    4.3245  -43.5199 C   0  0  0  0  0  0  0  0  0  0  0  0
  -36.1136    3.3333  -43.9907 N   0  0  0  0  0  0  0  0  0  0  0  0
  -36.6618    2.5380  -45.0975 C   0  0  0  0  0  0  0  0  0  0  0  0
  -35.5889    1.7291  -45.6989 C   0  0  0  0  0  0  0  0  0  0  0  0
  -34.7610    1.1049  -46.1629 N   0  0  0  0  0  0  0  0  0  0  0  0
  -34.8553    3.9836  -44.3822 C   0  0  0  0  0  0  0  0  0  0  0  0
  -34.2773    4.7353  -43.1809 C   0  0  0  0  0  0  0  0  0  0  0  0
  -34.6167    6.6523  -41.4217 X   0  0  0  0  0  0  0  0  0  0  0  0
  1  2  1  0  0  0  0
  1  9  1  0  0  0  0
  1 10  1  0  0  0  0
  2  3  1  0  0  0  0
  3  4  1  0  0  0  0
  4  5  1  0  0  0  0
  4  8  1  0  0  0  0
  5  6  1  0  0  0  0
  6  7  3  0  0  0  0
  8  9  1  0  0  0  0
M  END
> <Index>
5026

> <PropertyFieldDistance>
nan

$$$$
3885036
BBcorina  12272117083D 1   1.00000     0.00000 
CORINA 4.3.0 0026  30.10.2019
 12 12  0  0  0  0  0  0  0  0999 V2000
  -36.2498    0.5408  -46.5122 C   0  0  0  0  0  0  0  0  0  0  0  0
  -35.5896    1.6450  -45.6842 C   0  0  0  0  0  0  0  0  0  0  0  0
  -34.8149    1.0181  -44.5234 C   0  0  0  0  0  0  0  0  0  0  0  0
  -34.6909    2.3875  -46.5108 O   0  0  0  0  0  0  0  0  0  0  0  0
  -36.6663    2.5814  -45.1322 C   0  0  0  0  0  0  0  0  0  0  0  0
  -36.1155    3.3537  -44.0106 N   0  0  0  0  0  0  0  0  0  0  0  0
  -37.0907    4.3368  -43.5186 C   0  0  0  0  0  0  0  0  0  0  0  0
  -36.5099    5.0635  -42.3033 C   0  0  0  0  0  0  0  0  0  0  0  0
  -35.2512    5.7197  -42.6836 N   0  0  0  0  0  0  0  0  0  0  0  0
  -34.2759    4.7366  -43.1755 C   0  0  0  0  0  0  0  0  0  0  0  0
  -34.8567    4.0099  -44.3908 C   0  0  0  0  0  0  0  0  0  0  0  0
  -34.6099    6.6186  -41.3780 X   0  0  0  0  0  0  0  0  0  0  0  0
  1  2  1  0  0  0  0
  2  3  1  0  0  0  0
  2  4  1  0  0  0  0
  2  5  1  0  0  0  0
  5  6  1  0  0  0  0
  6  7  1  0  0  0  0
  6 11  1  0  0  0  0
  7  8  1  0  0  0  0
  8  9  1  0  0  0  0
  9 10  1  0  0  0  0
  9 12  1  0  0  0  0
 10 11  1  0  0  0  0
M  END
> <Index>
5027

> <PropertyFieldDistance>
nan

$$$$
11975686
BBcorina  12272117083D 1   1.00000     0.00000 
CORINA 4.3.0 0026  30.10.2019
 10 10  0  0  0  0  0  0  0  0999 V2000
  -35.9314    0.8042  -44.1129 N   0  0  0  0  0  0  0  0  0  0  0  0
  -35.9513    2.2730  -44.1048 C   0  0  0  0  0  0  0  0  0  0  0  0
  -36.6674    2.7664  -42.8460 C   0  0  0  0  0  0  0  0  0  0  0  0
  -36.6882    4.2963  -42.8376 C   0  0  0  0  0  0  0  0  0  0  0  0
  -35.2528    4.8258  -42.8484 C   0  0  0  0  0  0  0  0  0  0  0  0
  -34.5367    4.3324  -44.1072 C   0  0  0  0  0  0  0  0  0  0  0  0
  -34.5159    2.8026  -44.1156 C   0  0  0  0  0  0  0  0  0  0  0  0
  -33.8269    2.3279  -45.3267 C   0  0  0  0  0  0  0  0  0  0  0  0
  -33.2952    1.9615  -46.2614 N   0  0  0  0  0  0  0  0  0  0  0  0
  -35.8282    0.2015  -45.7098 X   0  0  0  0  0  0  0  0  0  0  0  0
  1  2  1  0  0  0  0
  1 10  1  0  0  0  0
  2  3  1  0  0  0  0
  2  7  1  0  0  0  0
  3  4  1  0  0  0  0
  4  5  1  0  0  0  0
  5  6  1  0  0  0  0
  6  7  1  0  0  0  0
  7  8  1  0  0  0  0
  8  9  3  0  0  0  0
M  END
> <Index>
5028

> <PropertyFieldDistance>
nan

$$$$
2673324
BBcorina  12272117083D 1   1.00000     0.00000 
CORINA 4.3.0 0026  30.10.2019
 12 13  0  0  0  0  0  0  0  0999 V2000
  -36.0191    3.9414  -44.5845 N   0  0  0  0  0  0  0  0  0  0  0  0
  -36.9723    4.0087  -43.4695 C   0  0  0  0  0  0  0  0  0  0  0  0
  -36.6793    5.2476  -42.6202 C   0  0  0  0  0  0  0  0  0  0  0  0
  -35.2463    5.1676  -42.0870 C   0  0  0  0  0  0  0  0  0  0  0  0
  -34.2770    5.0496  -43.2665 C   0  0  0  0  0  0  0  0  0  0  0  0
  -34.6396    3.8164  -44.0970 C   0  0  0  0  0  0  0  0  0  0  0  0
  -34.9269    6.4323  -41.2874 C   0  0  0  0  0  0  0  0  0  0  0  0
  -34.9803    7.5937  -42.1511 O   0  0  0  0  0  0  0  0  0  0  0  0
  -34.1782    8.5669  -41.4390 C   0  0  0  0  0  0  0  0  0  0  0  0
  -33.0526    7.7075  -40.8226 C   0  0  0  0  0  0  0  0  0  0  0  0
  -33.5828    6.3705  -40.7804 O   0  0  0  0  0  0  0  0  0  0  0  0
  -36.4110    2.6621  -45.6494 X   0  0  0  0  0  0  0  0  0  0  0  0
  1  2  1  0  0  0  0
  1  6  1  0  0  0  0
  1 12  1  0  0  0  0
  2  3  1  0  0  0  0
  3  4  1  0  0  0  0
  4  5  1  0  0  0  0
  4  7  1  0  0  0  0
  5  6  1  0  0  0  0
  7  8  1  0  0  0  0
  7 11  1  0  0  0  0
  8  9  1  0  0  0  0
  9 10  1  0  0  0  0
 10 11  1  0  0  0  0
M  END
> <Index>
5039

> <PropertyFieldDistance>
nan

$$$$
2991106
BBcorina  12272117083D 1   1.00000     0.00000 
CORINA 4.3.0 0026  30.10.2019
 10 10  0  0  0  0  0  0  0  0999 V2000
  -31.9078    4.7343  -43.7092 C   0  0  0  0  0  0  0  0  0  0  0  0
  -33.0140    5.6505  -43.4007 N   0  0  0  0  0  0  0  0  0  0  0  0
  -33.2000    6.6326  -44.4771 C   0  0  0  0  0  0  0  0  0  0  0  0
  -34.2558    4.9088  -43.1443 C   0  0  0  0  0  0  0  0  0  0  0  0
  -35.3527    5.8838  -42.7075 C   0  0  0  0  0  0  0  0  0  0  0  0
  -36.6587    5.1099  -42.5008 C   0  0  0  0  0  0  0  0  0  0  0  0
  -37.0290    4.3869  -43.7977 C   0  0  0  0  0  0  0  0  0  0  0  0
  -35.9480    3.4664  -44.1723 N   0  0  0  0  0  0  0  0  0  0  0  0
  -34.6958    4.1916  -44.4227 C   0  0  0  0  0  0  0  0  0  0  0  0
  -36.3899    2.5211  -45.5270 X   0  0  0  0  0  0  0  0  0  0  0  0
  1  2  1  0  0  0  0
  2  3  1  0  0  0  0
  2  4  1  0  0  0  0
  4  5  1  0  0  0  0
  4  9  1  0  0  0  0
  5  6  1  0  0  0  0
  6  7  1  0  0  0  0
  7  8  1  0  0  0  0
  8  9  1  0  0  0  0
  8 10  1  0  0  0  0
M  END
> <Index>
5043

> <PropertyFieldDistance>
nan

$$$$
5730528
BBcorina  12272117083D 1   1.00000     0.00000 
CORINA 4.3.0 0026  30.10.2019
 10 10  0  0  0  0  0  0  0  0999 V2000
  -31.9855    4.9510  -44.0937 C   0  0  0  0  0  0  0  0  0  0  0  0
  -32.9126    5.1891  -42.9793 N   0  0  0  0  0  0  0  0  0  0  0  0
  -34.3080    5.1369  -43.4352 C   0  0  0  0  0  0  0  0  0  0  0  0
  -35.2385    5.5067  -42.2767 C   0  0  0  0  0  0  0  0  0  0  0  0
  -36.6923    5.3914  -42.7433 C   0  0  0  0  0  0  0  0  0  0  0  0
  -36.9514    3.9683  -43.2428 C   0  0  0  0  0  0  0  0  0  0  0  0
  -36.0372    3.6630  -44.3508 N   0  0  0  0  0  0  0  0  0  0  0  0
  -36.3495    2.3571  -44.9464 C   0  0  0  0  0  0  0  0  0  0  0  0
  -34.6363    3.7210  -43.9146 C   0  0  0  0  0  0  0  0  0  0  0  0
  -32.6411    4.0780  -41.7082 X   0  0  0  0  0  0  0  0  0  0  0  0
  1  2  1  0  0  0  0
  2  3  1  0  0  0  0
  2 10  1  0  0  0  0
  3  4  1  0  0  0  0
  3  9  1  0  0  0  0
  4  5  1  0  0  0  0
  5  6  1  0  0  0  0
  6  7  1  0  0  0  0
  7  8  1  0  0  0  0
  7  9  1  0  0  0  0
M  END
> <Index>
5046

> <PropertyFieldDistance>
nan

$$$$
2690834
BBcorina  12272117083D 1   1.00000     0.00000 
CORINA 4.3.0 0026  30.10.2019
 11 11  0  0  0  0  0  0  0  0999 V2000
  -35.9985    2.1410  -46.1833 C   0  0  0  0  0  0  0  0  0  0  0  0
  -36.3985    2.0044  -44.7129 C   0  0  0  0  0  0  0  0  0  0  0  0
  -35.6304    0.8417  -44.0813 C   0  0  0  0  0  0  0  0  0  0  0  0
  -36.0778    3.2448  -44.0023 N   0  0  0  0  0  0  0  0  0  0  0  0
  -37.0653    4.0825  -43.3116 C   0  0  0  0  0  0  0  0  0  0  0  0
  -36.3745    5.4488  -43.1053 C   0  0  0  0  0  0  0  0  0  0  0  0
  -34.8797    5.0472  -43.1023 C   0  0  0  0  0  0  0  0  0  0  0  0
  -34.8412    3.7617  -43.8989 C   0  0  0  0  0  0  0  0  0  0  0  0
  -33.8397    3.2666  -44.3710 O   0  0  0  0  0  0  0  0  0  0  0  0
  -36.6761    6.3631  -44.2148 N   0  0  0  0  0  0  0  0  0  0  0  0
  -36.2337    5.6727  -45.7154 X   0  0  0  0  0  0  0  0  0  0  0  0
  1  2  1  0  0  0  0
  2  3  1  0  0  0  0
  2  4  1  0  0  0  0
  4  5  1  0  0  0  0
  4  8  1  0  0  0  0
  5  6  1  0  0  0  0
  6  7  1  0  0  0  0
  6 10  1  0  0  0  0
  7  8  1  0  0  0  0
  8  9  2  0  0  0  0
 10 11  1  0  0  0  0
M  END
> <Index>
5073

> <PropertyFieldDistance>
nan

$$$$
2767734
BBcorina  12272117083D 1   1.00000     0.00000 
CORINA 4.3.0 0026  30.10.2019
 16 17  0  0  0  0  0  0  0  0999 V2000
  -38.3024   -1.9908  -46.0307 C   0  0  0  0  0  0  0  0  0  0  0  0
  -37.2120   -1.2623  -46.5981 O   0  0  0  0  0  0  0  0  0  0  0  0
  -36.9235   -0.0532  -46.0465 C   0  0  0  0  0  0  0  0  0  0  0  0
  -35.8773    0.7061  -46.5491 C   0  0  0  0  0  0  0  0  0  0  0  0
  -35.5837    1.9341  -45.9895 C   0  0  0  0  0  0  0  0  0  0  0  0
  -36.3362    2.4085  -44.9232 C   0  0  0  0  0  0  0  0  0  0  0  0
  -37.3798    1.6451  -44.4169 C   0  0  0  0  0  0  0  0  0  0  0  0
  -37.6754    0.4197  -44.9812 C   0  0  0  0  0  0  0  0  0  0  0  0
  -36.0394    3.6528  -44.3556 N   0  0  0  0  0  0  0  0  0  0  0  0
  -36.9538    3.9573  -43.2477 C   0  0  0  0  0  0  0  0  0  0  0  0
  -36.6956    5.3805  -42.7479 C   0  0  0  0  0  0  0  0  0  0  0  0
  -35.2419    5.4963  -42.2811 C   0  0  0  0  0  0  0  0  0  0  0  0
  -34.3111    5.1273  -43.4395 C   0  0  0  0  0  0  0  0  0  0  0  0
  -34.6385    3.7114  -43.9192 C   0  0  0  0  0  0  0  0  0  0  0  0
  -34.9718    6.8759  -41.8546 N   0  0  0  0  0  0  0  0  0  0  0  0
  -35.3276    7.9851  -43.1065 X   0  0  0  0  0  0  0  0  0  0  0  0
  1  2  1  0  0  0  0
  2  3  1  0  0  0  0
  3  4  2  0  0  0  0
  3  8  1  0  0  0  0
  4  5  1  0  0  0  0
  5  6  2  0  0  0  0
  6  7  1  0  0  0  0
  6  9  1  0  0  0  0
  7  8  2  0  0  0  0
  9 10  1  0  0  0  0
  9 14  1  0  0  0  0
 10 11  1  0  0  0  0
 11 12  1  0  0  0  0
 12 13  1  0  0  0  0
 12 15  1  0  0  0  0
 13 14  1  0  0  0  0
 15 16  1  0  0  0  0
M  END
> <Index>
5118

> <PropertyFieldDistance>
nan

$$$$
2757272
BBcorina  12272117083D 1   1.00000     0.00000 
CORINA 4.3.0 0026  30.10.2019
 11 11  0  0  0  0  0  0  0  0999 V2000
  -36.2406    0.2933  -46.0023 C   0  0  0  0  0  0  0  0  0  0  0  0
  -35.5689    1.5954  -45.5616 C   0  0  0  0  0  0  0  0  0  0  0  0
  -36.5686    2.4539  -44.8304 C   0  0  0  0  0  0  0  0  0  0  0  0
  -37.7063    2.0628  -44.6770 O   0  0  0  0  0  0  0  0  0  0  0  0
  -36.1985    3.6564  -44.3471 N   0  0  0  0  0  0  0  0  0  0  0  0
  -37.1582    4.5100  -43.6306 C   0  0  0  0  0  0  0  0  0  0  0  0
  -36.5301    4.9379  -42.3000 C   0  0  0  0  0  0  0  0  0  0  0  0
  -35.2212    5.5539  -42.5557 N   0  0  0  0  0  0  0  0  0  0  0  0
  -34.2878    4.5919  -43.1565 C   0  0  0  0  0  0  0  0  0  0  0  0
  -34.8224    4.1471  -44.5169 C   0  0  0  0  0  0  0  0  0  0  0  0
  -34.5707    6.2272  -41.1247 X   0  0  0  0  0  0  0  0  0  0  0  0
  1  2  1  0  0  0  0
  2  3  1  0  0  0  0
  3  4  2  0  0  0  0
  3  5  1  0  0  0  0
  5  6  1  0  0  0  0
  5 10  1  0  0  0  0
  6  7  1  0  0  0  0
  7  8  1  0  0  0  0
  8  9  1  0  0  0  0
  8 11  1  0  0  0  0
  9 10  1  0  0  0  0
M  END
> <Index>
5129

> <PropertyFieldDistance>
nan

$$$$
7048226
BBcorina  12272117083D 1   1.00000     0.00000 
CORINA 4.3.0 0026  30.10.2019
  6  6  0  0  0  0  0  0  0  0999 V2000
  -37.3643    4.7890  -41.3964 O   0  0  0  0  0  0  0  0  0  0  0  0
  -36.4846    4.8057  -42.5225 C   0  0  0  0  0  0  0  0  0  0  0  0
  -37.1759    4.5246  -43.8641 C   0  0  0  0  0  0  0  0  0  0  0  0
  -36.0032    3.7116  -44.2370 N   0  0  0  0  0  0  0  0  0  0  0  0
  -35.7852    3.4674  -42.7989 C   0  0  0  0  0  0  0  0  0  0  0  0
  -36.4810    2.2776  -45.0366 X   0  0  0  0  0  0  0  0  0  0  0  0
  1  2  1  0  0  0  0
  2  3  1  0  0  0  0
  2  5  1  0  0  0  0
  3  4  1  0  0  0  0
  4  5  1  0  0  0  0
  4  6  1  0  0  0  0
M  END
> <Index>
5135

> <PropertyFieldDistance>
nan

$$$$
4003620
BBcorina  12272117083D 1   1.00000     0.00000 
CORINA 4.3.0 0026  30.10.2019
 12 12  0  0  0  0  0  0  0  0999 V2000
  -36.3256    0.8811  -46.9632 C   0  0  0  0  0  0  0  0  0  0  0  0
  -35.7186    1.5922  -45.7521 C   0  0  0  0  0  0  0  0  0  0  0  0
  -36.6286    2.7472  -45.3297 C   0  0  0  0  0  0  0  0  0  0  0  0
  -36.1128    3.3503  -44.0935 N   0  0  0  0  0  0  0  0  0  0  0  0
  -37.0771    4.3074  -43.5323 C   0  0  0  0  0  0  0  0  0  0  0  0
  -36.5378    4.8525  -42.2077 C   0  0  0  0  0  0  0  0  0  0  0  0
  -35.2360    5.4942  -42.4381 N   0  0  0  0  0  0  0  0  0  0  0  0
  -34.7201    6.0972  -41.2020 C   0  0  0  0  0  0  0  0  0  0  0  0
  -34.2723    4.5371  -42.9992 C   0  0  0  0  0  0  0  0  0  0  0  0
  -34.8111    3.9919  -44.3240 C   0  0  0  0  0  0  0  0  0  0  0  0
  -35.5873    0.6406  -44.6406 N   0  0  0  0  0  0  0  0  0  0  0  0
  -37.1107    0.0038  -44.1959 X   0  0  0  0  0  0  0  0  0  0  0  0
  1  2  1  0  0  0  0
  2  3  1  0  0  0  0
  2 11  1  0  0  0  0
  3  4  1  0  0  0  0
  4  5  1  0  0  0  0
  4 10  1  0  0  0  0
  5  6  1  0  0  0  0
  6  7  1  0  0  0  0
  7  8  1  0  0  0  0
  7  9  1  0  0  0  0
  9 10  1  0  0  0  0
 11 12  1  0  0  0  0
M  END
> <Index>
5150

> <PropertyFieldDistance>
nan

$$$$
2909312
BBcorina  12272117083D 1   1.00000     0.00000 
CORINA 4.3.0 0026  30.10.2019
 11 11  0  0  0  0  0  0  0  0999 V2000
  -35.1032   -0.0758  -47.3229 C   0  0  0  0  0  0  0  0  0  0  0  0
  -36.1404    0.7679  -46.7145 N   0  0  0  0  0  0  0  0  0  0  0  0
  -35.5716    1.6312  -45.6708 C   0  0  0  0  0  0  0  0  0  0  0  0
  -36.6795    2.4930  -45.0620 C   0  0  0  0  0  0  0  0  0  0  0  0
  -36.1108    3.3562  -44.0183 N   0  0  0  0  0  0  0  0  0  0  0  0
  -37.0880    4.3615  -43.5758 C   0  0  0  0  0  0  0  0  0  0  0  0
  -36.4762    5.1987  -42.4494 C   0  0  0  0  0  0  0  0  0  0  0  0
  -35.2596    5.7925  -42.9104 O   0  0  0  0  0  0  0  0  0  0  0  0
  -34.2849    4.8420  -43.3486 C   0  0  0  0  0  0  0  0  0  0  0  0
  -34.8745    4.0012  -44.4841 C   0  0  0  0  0  0  0  0  0  0  0  0
  -37.4182   -0.1838  -46.0934 X   0  0  0  0  0  0  0  0  0  0  0  0
  1  2  1  0  0  0  0
  2  3  1  0  0  0  0
  2 11  1  0  0  0  0
  3  4  1  0  0  0  0
  4  5  1  0  0  0  0
  5  6  1  0  0  0  0
  5 10  1  0  0  0  0
  6  7  1  0  0  0  0
  7  8  1  0  0  0  0
  8  9  1  0  0  0  0
  9 10  1  0  0  0  0
M  END
> <Index>
5157

> <PropertyFieldDistance>
nan

$$$$
4146026
BBcorina  12272117083D 1   1.00000     0.00000 
CORINA 4.3.0 0026  30.10.2019
 12 12  0  0  0  0  0  0  0  0999 V2000
  -38.3731    3.6636  -43.1366 C   0  0  0  0  0  0  0  0  0  0  0  0
  -37.0946    4.3727  -43.5877 C   0  0  0  0  0  0  0  0  0  0  0  0
  -36.5217    5.1812  -42.4215 C   0  0  0  0  0  0  0  0  0  0  0  0
  -35.2318    5.8728  -42.8712 C   0  0  0  0  0  0  0  0  0  0  0  0
  -34.2409    4.8155  -43.3659 C   0  0  0  0  0  0  0  0  0  0  0  0
  -34.8799    4.0177  -44.5047 C   0  0  0  0  0  0  0  0  0  0  0  0
  -35.2164    4.9606  -45.6616 C   0  0  0  0  0  0  0  0  0  0  0  0
  -36.1095    3.3749  -44.0238 N   0  0  0  0  0  0  0  0  0  0  0  0
  -36.6762    2.4890  -45.0496 C   0  0  0  0  0  0  0  0  0  0  0  0
  -35.5626    1.6328  -45.6558 C   0  0  0  0  0  0  0  0  0  0  0  0
  -36.1293    0.7468  -46.6814 N   0  0  0  0  0  0  0  0  0  0  0  0
  -34.9155   -0.2300  -47.3861 X   0  0  0  0  0  0  0  0  0  0  0  0
  1  2  1  0  0  0  0
  2  3  1  0  0  0  0
  2  8  1  0  0  0  0
  3  4  1  0  0  0  0
  4  5  1  0  0  0  0
  5  6  1  0  0  0  0
  6  7  1  0  0  0  0
  6  8  1  0  0  0  0
  8  9  1  0  0  0  0
  9 10  1  0  0  0  0
 10 11  1  0  0  0  0
 11 12  1  0  0  0  0
M  END
> <Index>
5163

> <PropertyFieldDistance>
nan

$$$$
3487038
BBcorina  12272117083D 1   1.00000     0.00000 
CORINA 4.3.0 0026  30.10.2019
 13 13  0  0  0  0  0  0  0  0999 V2000
  -37.8902    0.6748  -47.5732 C   0  0  0  0  0  0  0  0  0  0  0  0
  -36.7966    0.8182  -46.6030 N   0  0  0  0  0  0  0  0  0  0  0  0
  -35.4948    0.5696  -47.2364 C   0  0  0  0  0  0  0  0  0  0  0  0
  -36.8280    2.1417  -45.9662 C   0  0  0  0  0  0  0  0  0  0  0  0
  -35.8428    2.1681  -44.7959 C   0  0  0  0  0  0  0  0  0  0  0  0
  -35.7903    3.5229  -44.2306 N   0  0  0  0  0  0  0  0  0  0  0  0
  -36.9268    3.7879  -43.4557 C   0  0  0  0  0  0  0  0  0  0  0  0
  -36.9843    5.2701  -43.0227 C   0  0  0  0  0  0  0  0  0  0  0  0
  -35.9968    5.4921  -41.9056 C   0  0  0  0  0  0  0  0  0  0  0  0
  -34.6712    5.9419  -42.3880 N   0  0  0  0  0  0  0  0  0  0  0  0
  -34.2063    5.2346  -43.5990 C   0  0  0  0  0  0  0  0  0  0  0  0
  -34.5069    3.7584  -43.5388 C   0  0  0  0  0  0  0  0  0  0  0  0
  -33.5037    5.8553  -41.1416 X   0  0  0  0  0  0  0  0  0  0  0  0
  1  2  1  0  0  0  0
  2  3  1  0  0  0  0
  2  4  1  0  0  0  0
  4  5  1  0  0  0  0
  5  6  1  0  0  0  0
  6  7  1  0  0  0  0
  6 12  1  0  0  0  0
  7  8  1  0  0  0  0
  8  9  1  0  0  0  0
  9 10  1  0  0  0  0
 10 11  1  0  0  0  0
 10 13  1  0  0  0  0
 11 12  1  0  0  0  0
M  END
> <Index>
5169

> <PropertyFieldDistance>
nan

$$$$
2885054
BBcorina  12272117083D 1   1.00000     0.00000 
CORINA 4.3.0 0026  30.10.2019
 13 13  0  0  0  0  0  0  0  0999 V2000
  -35.5597   -0.9916  -48.3044 C   0  0  0  0  0  0  0  0  0  0  0  0
  -35.1126   -0.0896  -47.2902 O   0  0  0  0  0  0  0  0  0  0  0  0
  -36.1528    0.7101  -46.7240 C   0  0  0  0  0  0  0  0  0  0  0  0
  -35.5626    1.6328  -45.6558 C   0  0  0  0  0  0  0  0  0  0  0  0
  -36.6762    2.4890  -45.0495 C   0  0  0  0  0  0  0  0  0  0  0  0
  -36.1095    3.3749  -44.0239 N   0  0  0  0  0  0  0  0  0  0  0  0
  -37.0946    4.3727  -43.5877 C   0  0  0  0  0  0  0  0  0  0  0  0
  -36.5218    5.1812  -42.4214 C   0  0  0  0  0  0  0  0  0  0  0  0
  -35.2319    5.8729  -42.8712 C   0  0  0  0  0  0  0  0  0  0  0  0
  -34.2409    4.8156  -43.3659 C   0  0  0  0  0  0  0  0  0  0  0  0
  -34.8799    4.0176  -44.5048 C   0  0  0  0  0  0  0  0  0  0  0  0
  -34.6469    6.6045  -41.7396 N   0  0  0  0  0  0  0  0  0  0  0  0
  -34.1783    5.5320  -40.4928 X   0  0  0  0  0  0  0  0  0  0  0  0
  1  2  1  0  0  0  0
  2  3  1  0  0  0  0
  3  4  1  0  0  0  0
  4  5  1  0  0  0  0
  5  6  1  0  0  0  0
  6  7  1  0  0  0  0
  6 11  1  0  0  0  0
  7  8  1  0  0  0  0
  8  9  1  0  0  0  0
  9 10  1  0  0  0  0
  9 12  1  0  0  0  0
 10 11  1  0  0  0  0
 12 13  1  0  0  0  0
M  END
> <Index>
5170

> <PropertyFieldDistance>
nan

$$$$
16505710
BBcorina  12272117083D 1   1.00000     0.00000 
CORINA 4.3.0 0026  30.10.2019
 14 15  0  0  0  0  0  0  0  0999 V2000
  -36.7244    0.7369  -44.0370 N   0  0  0  0  0  0  0  0  0  0  0  0
  -36.9572    1.5514  -45.2371 C   0  0  0  0  0  0  0  0  0  0  0  0
  -35.8176    2.5595  -45.3983 C   0  0  0  0  0  0  0  0  0  0  0  0
  -34.4933    1.8195  -45.6781 C   0  0  0  0  0  0  0  0  0  0  0  0
  -33.7566    2.7296  -46.6921 C   0  0  0  0  0  0  0  0  0  0  0  0
  -34.9086    3.2413  -47.5920 C   0  0  0  0  0  0  0  0  0  0  0  0
  -36.0817    3.4635  -46.6151 C   0  0  0  0  0  0  0  0  0  0  0  0
  -35.6911    3.3754  -44.1833 N   0  0  0  0  0  0  0  0  0  0  0  0
  -36.9214    4.1394  -43.9312 C   0  0  0  0  0  0  0  0  0  0  0  0
  -36.7685    4.9271  -42.6274 C   0  0  0  0  0  0  0  0  0  0  0  0
  -35.6167    5.7701  -42.7179 O   0  0  0  0  0  0  0  0  0  0  0  0
  -34.4004    5.0587  -42.9623 C   0  0  0  0  0  0  0  0  0  0  0  0
  -34.5293    4.2722  -44.2695 C   0  0  0  0  0  0  0  0  0  0  0  0
  -37.9176   -0.4779  -43.8799 X   0  0  0  0  0  0  0  0  0  0  0  0
  1  2  1  0  0  0  0
  1 14  1  0  0  0  0
  2  3  1  0  0  0  0
  3  4  1  0  0  0  0
  3  7  1  0  0  0  0
  3  8  1  0  0  0  0
  4  5  1  0  0  0  0
  5  6  1  0  0  0  0
  6  7  1  0  0  0  0
  8  9  1  0  0  0  0
  8 13  1  0  0  0  0
  9 10  1  0  0  0  0
 10 11  1  0  0  0  0
 11 12  1  0  0  0  0
 12 13  1  0  0  0  0
M  END
> <Index>
5171

> <PropertyFieldDistance>
nan

$$$$
5119316
BBcorina  12272117083D 1   1.00000     0.00000 
CORINA 4.3.0 0026  30.10.2019
 11 11  0  0  0  0  0  0  0  0999 V2000
  -34.6934    1.6612  -46.2012 O   0  0  0  0  0  0  0  0  0  0  0  0
  -36.1059    1.6538  -45.9847 C   0  0  0  0  0  0  0  0  0  0  0  0
  -36.3933    2.1751  -44.5752 C   0  0  0  0  0  0  0  0  0  0  0  0
  -36.0173    3.5927  -44.4913 N   0  0  0  0  0  0  0  0  0  0  0  0
  -36.5917    0.2858  -46.0894 C   0  0  0  0  0  0  0  0  0  0  0  0
  -36.2830   -0.3420  -47.4641 C   0  0  0  0  0  0  0  0  0  0  0  0
  -37.3082    0.1461  -48.4527 C   0  0  0  0  0  0  0  0  0  0  0  0
  -36.8289    1.3852  -49.2327 C   0  0  0  0  0  0  0  0  0  0  0  0
  -36.0984    2.4070  -48.3406 C   0  0  0  0  0  0  0  0  0  0  0  0
  -36.7731    2.5947  -47.0087 C   0  0  0  0  0  0  0  0  0  0  0  0
  -36.3229    4.2162  -42.9287 X   0  0  0  0  0  0  0  0  0  0  0  0
  1  2  1  0  0  0  0
  2  3  1  0  0  0  0
  2  5  1  0  0  0  0
  2 10  1  0  0  0  0
  3  4  1  0  0  0  0
  4 11  1  0  0  0  0
  5  6  1  0  0  0  0
  6  7  1  0  0  0  0
  7  8  1  0  0  0  0
  8  9  1  0  0  0  0
  9 10  1  0  0  0  0
M  END
> <Index>
5173

> <PropertyFieldDistance>
nan

$$$$
2910344
BBcorina  12272117083D 1   1.00000     0.00000 
CORINA 4.3.0 0026  30.10.2019
 12 13  0  0  0  0  0  0  0  0999 V2000
  -38.9174    1.6874  -45.3171 C   0  0  0  0  0  0  0  0  0  0  0  0
  -37.8682    2.6162  -44.7626 C   0  0  0  0  0  0  0  0  0  0  0  0
  -38.0700    3.5380  -43.8186 N   0  0  0  0  0  0  0  0  0  0  0  0
  -36.9553    4.1667  -43.5724 C   0  0  0  0  0  0  0  0  0  0  0  0
  -36.7193    5.2833  -42.5847 C   0  0  0  0  0  0  0  0  0  0  0  0
  -35.3854    5.9569  -42.9326 C   0  0  0  0  0  0  0  0  0  0  0  0
  -34.3104    4.8823  -43.1191 C   0  0  0  0  0  0  0  0  0  0  0  0
  -34.6026    4.0822  -44.3938 C   0  0  0  0  0  0  0  0  0  0  0  0
  -35.9998    3.6491  -44.3678 N   0  0  0  0  0  0  0  0  0  0  0  0
  -36.6113    2.6494  -45.1294 N   0  0  0  0  0  0  0  0  0  0  0  0
  -32.9931    5.5223  -43.2341 N   0  0  0  0  0  0  0  0  0  0  0  0
  -32.9763    6.6661  -44.5052 X   0  0  0  0  0  0  0  0  0  0  0  0
  1  2  1  0  0  0  0
  2  3  1  0  0  0  0
  2 10  2  0  0  0  0
  3  4  2  0  0  0  0
  4  5  1  0  0  0  0
  4  9  1  0  0  0  0
  5  6  1  0  0  0  0
  6  7  1  0  0  0  0
  7  8  1  0  0  0  0
  7 11  1  0  0  0  0
  8  9  1  0  0  0  0
  9 10  1  0  0  0  0
 11 12  1  0  0  0  0
M  END
> <Index>
5199

> <PropertyFieldDistance>
nan

$$$$
12911632
BBcorina  12272117083D 1   1.00000     0.00000 
CORINA 4.3.0 0026  30.10.2019
 13 13  0  0  0  0  0  0  0  0999 V2000
  -34.5631   -1.8711  -48.9612 C   0  0  0  0  0  0  0  0  0  0  0  0
  -35.6059   -1.0320  -48.3559 N   0  0  0  0  0  0  0  0  0  0  0  0
  -35.0392   -0.1461  -47.3303 C   0  0  0  0  0  0  0  0  0  0  0  0
  -36.1528    0.7101  -46.7241 C   0  0  0  0  0  0  0  0  0  0  0  0
  -35.5626    1.6328  -45.6558 C   0  0  0  0  0  0  0  0  0  0  0  0
  -36.6762    2.4890  -45.0496 C   0  0  0  0  0  0  0  0  0  0  0  0
  -36.1095    3.3749  -44.0239 N   0  0  0  0  0  0  0  0  0  0  0  0
  -37.0947    4.3728  -43.5877 C   0  0  0  0  0  0  0  0  0  0  0  0
  -36.5218    5.1812  -42.4215 C   0  0  0  0  0  0  0  0  0  0  0  0
  -35.2318    5.8729  -42.8713 C   0  0  0  0  0  0  0  0  0  0  0  0
  -34.2408    4.8155  -43.3659 C   0  0  0  0  0  0  0  0  0  0  0  0
  -34.8799    4.0177  -44.5048 C   0  0  0  0  0  0  0  0  0  0  0  0
  -36.4391   -0.1339  -49.5490 X   0  0  0  0  0  0  0  0  0  0  0  0
  1  2  1  0  0  0  0
  2  3  1  0  0  0  0
  2 13  1  0  0  0  0
  3  4  1  0  0  0  0
  4  5  1  0  0  0  0
  5  6  1  0  0  0  0
  6  7  1  0  0  0  0
  7  8  1  0  0  0  0
  7 12  1  0  0  0  0
  8  9  1  0  0  0  0
  9 10  1  0  0  0  0
 10 11  1  0  0  0  0
 11 12  1  0  0  0  0
M  END
> <Index>
5207

> <PropertyFieldDistance>
nan

$$$$
4840370
BBcorina  12272117083D 1   1.00000     0.00000 
CORINA 4.3.0 0026  30.10.2019
 10 10  0  0  0  0  0  0  0  0999 V2000
  -36.2612    7.6321  -42.3456 C   0  0  0  0  0  0  0  0  0  0  0  0
  -35.9952    6.3005  -43.0506 C   0  0  0  0  0  0  0  0  0  0  0  0
  -37.1749    5.3460  -42.7705 C   0  0  0  0  0  0  0  0  0  0  0  0
  -36.7984    3.8755  -43.0487 C   0  0  0  0  0  0  0  0  0  0  0  0
  -36.0075    3.7242  -44.2457 N   0  0  0  0  0  0  0  0  0  0  0  0
  -36.3786    2.5010  -44.9694 C   0  0  0  0  0  0  0  0  0  0  0  0
  -34.5675    3.7204  -43.9005 C   0  0  0  0  0  0  0  0  0  0  0  0
  -34.0477    5.0707  -43.6983 C   0  0  0  0  0  0  0  0  0  0  0  0
  -34.7345    5.7735  -42.5906 N   0  0  0  0  0  0  0  0  0  0  0  0
  -33.7492    7.0147  -41.9480 X   0  0  0  0  0  0  0  0  0  0  0  0
  1  2  1  0  0  0  0
  2  3  1  0  0  0  0
  2  9  1  0  0  0  0
  3  4  1  0  0  0  0
  4  5  1  0  0  0  0
  5  6  1  0  0  0  0
  5  7  1  0  0  0  0
  7  8  1  0  0  0  0
  8  9  1  0  0  0  0
  9 10  1  0  0  0  0
M  END
> <Index>
5208

> <PropertyFieldDistance>
nan

$$$$
4963458
BBcorina  12272117083D 1   1.00000     0.00000 
CORINA 4.3.0 0026  30.10.2019
 10 10  0  0  0  0  0  0  0  0999 V2000
  -38.0951    5.6087  -41.7667 C   0  0  0  0  0  0  0  0  0  0  0  0
  -36.7672    5.1442  -42.3685 C   0  0  0  0  0  0  0  0  0  0  0  0
  -37.0296    4.3467  -43.6206 C   0  0  0  0  0  0  0  0  0  0  0  0
  -36.0337    3.2734  -43.8404 N   0  0  0  0  0  0  0  0  0  0  0  0
  -36.1496    2.7173  -45.1952 C   0  0  0  0  0  0  0  0  0  0  0  0
  -34.6435    3.6824  -43.5531 C   0  0  0  0  0  0  0  0  0  0  0  0
  -34.3511    5.0737  -44.0554 C   0  0  0  0  0  0  0  0  0  0  0  0
  -34.5661    6.0184  -42.9408 N   0  0  0  0  0  0  0  0  0  0  0  0
  -35.9043    6.3743  -42.7287 C   0  0  0  0  0  0  0  0  0  0  0  0
  -33.5831    7.4067  -43.1158 X   0  0  0  0  0  0  0  0  0  0  0  0
  1  2  1  0  0  0  0
  2  3  1  0  0  0  0
  2  9  1  0  0  0  0
  3  4  1  0  0  0  0
  4  5  1  0  0  0  0
  4  6  1  0  0  0  0
  6  7  1  0  0  0  0
  7  8  1  0  0  0  0
  8  9  1  0  0  0  0
  8 10  1  0  0  0  0
M  END
> <Index>
5209

> <PropertyFieldDistance>
nan

$$$$
2834058
BBcorina  12272117083D 1   1.00000     0.00000 
CORINA 4.3.0 0026  30.10.2019
  9  9  0  0  0  0  0  0  0  0999 V2000
  -34.9280    6.4329  -41.2863 C   0  0  0  0  0  0  0  0  0  0  0  0
  -35.2464    5.1681  -42.0862 C   0  0  0  0  0  0  0  0  0  0  0  0
  -35.1047    3.9412  -41.1832 C   0  0  0  0  0  0  0  0  0  0  0  0
  -36.6793    5.2476  -42.6202 C   0  0  0  0  0  0  0  0  0  0  0  0
  -36.9724    4.0086  -43.4694 C   0  0  0  0  0  0  0  0  0  0  0  0
  -36.0191    3.9414  -44.5845 N   0  0  0  0  0  0  0  0  0  0  0  0
  -34.6396    3.8164  -44.0970 C   0  0  0  0  0  0  0  0  0  0  0  0
  -34.2770    5.0495  -43.2665 C   0  0  0  0  0  0  0  0  0  0  0  0
  -36.4110    2.6621  -45.6494 X   0  0  0  0  0  0  0  0  0  0  0  0
  1  2  1  0  0  0  0
  2  3  1  0  0  0  0
  2  4  1  0  0  0  0
  2  8  1  0  0  0  0
  4  5  1  0  0  0  0
  5  6  1  0  0  0  0
  6  7  1  0  0  0  0
  6  9  1  0  0  0  0
  7  8  1  0  0  0  0
M  END
> <Index>
5212

> <PropertyFieldDistance>
nan

$$$$
3705776
BBcorina  12272117083D 1   1.00000     0.00000 
CORINA 4.3.0 0026  30.10.2019
 14 15  0  0  0  0  0  0  0  0999 V2000
  -32.8894    1.0480  -48.0252 C   0  0  0  0  0  0  0  0  0  0  0  0
  -33.9287    1.0679  -46.9929 N   0  0  0  0  0  0  0  0  0  0  0  0
  -34.7696    2.0908  -46.7325 C   0  0  0  0  0  0  0  0  0  0  0  0
  -35.5754    1.7129  -45.7132 C   0  0  0  0  0  0  0  0  0  0  0  0
  -36.6706    2.5427  -45.0944 C   0  0  0  0  0  0  0  0  0  0  0  0
  -36.1182    3.3364  -43.9885 N   0  0  0  0  0  0  0  0  0  0  0  0
  -37.0926    4.3292  -43.5148 C   0  0  0  0  0  0  0  0  0  0  0  0
  -36.5104    5.0792  -42.3144 C   0  0  0  0  0  0  0  0  0  0  0  0
  -35.2517    5.7273  -42.7086 N   0  0  0  0  0  0  0  0  0  0  0  0
  -34.2772    4.7345  -43.1823 C   0  0  0  0  0  0  0  0  0  0  0  0
  -34.8597    3.9845  -44.3827 C   0  0  0  0  0  0  0  0  0  0  0  0
  -35.2081    0.4185  -45.3314 C   0  0  0  0  0  0  0  0  0  0  0  0
  -34.2212    0.0308  -46.0978 N   0  0  0  0  0  0  0  0  0  0  0  0
  -34.6087    6.6511  -41.4213 X   0  0  0  0  0  0  0  0  0  0  0  0
  1  2  1  0  0  0  0
  2  3  1  0  0  0  0
  2 13  1  0  0  0  0
  3  4  2  0  0  0  0
  4  5  1  0  0  0  0
  4 12  1  0  0  0  0
  5  6  1  0  0  0  0
  6  7  1  0  0  0  0
  6 11  1  0  0  0  0
  7  8  1  0  0  0  0
  8  9  1  0  0  0  0
  9 10  1  0  0  0  0
  9 14  1  0  0  0  0
 10 11  1  0  0  0  0
 12 13  2  0  0  0  0
M  END
> <Index>
5219

> <PropertyFieldDistance>
nan

$$$$
2833218
BBcorina  12272117083D 1   1.00000     0.00000 
CORINA 4.3.0 0026  30.10.2019
 15 15  0  0  0  0  0  0  0  0999 V2000
  -37.3957    2.0307  -47.6758 F   0  0  0  0  0  0  0  0  0  0  0  0
  -36.5143    1.1642  -47.0205 C   0  0  0  0  0  0  0  0  0  0  0  0
  -35.6591    0.5732  -47.9566 F   0  0  0  0  0  0  0  0  0  0  0  0
  -37.2432    0.1687  -46.3610 F   0  0  0  0  0  0  0  0  0  0  0  0
  -35.6886    1.9516  -46.0011 C   0  0  0  0  0  0  0  0  0  0  0  0
  -36.6099    2.5882  -44.9927 C   0  0  0  0  0  0  0  0  0  0  0  0
  -37.8088    2.4281  -45.0806 O   0  0  0  0  0  0  0  0  0  0  0  0
  -36.1015    3.3358  -43.9930 N   0  0  0  0  0  0  0  0  0  0  0  0
  -36.9868    3.9629  -43.0023 C   0  0  0  0  0  0  0  0  0  0  0  0
  -36.6789    5.4623  -42.9406 C   0  0  0  0  0  0  0  0  0  0  0  0
  -35.1857    5.6613  -42.6687 C   0  0  0  0  0  0  0  0  0  0  0  0
  -34.3686    5.0435  -43.8056 C   0  0  0  0  0  0  0  0  0  0  0  0
  -34.6513    3.5394  -43.8736 C   0  0  0  0  0  0  0  0  0  0  0  0
  -34.8920    7.0978  -42.5794 N   0  0  0  0  0  0  0  0  0  0  0  0
  -35.3910    7.9145  -43.9965 X   0  0  0  0  0  0  0  0  0  0  0  0
  1  2  1  0  0  0  0
  2  3  1  0  0  0  0
  2  4  1  0  0  0  0
  2  5  1  0  0  0  0
  5  6  1  0  0  0  0
  6  7  2  0  0  0  0
  6  8  1  0  0  0  0
  8  9  1  0  0  0  0
  8 13  1  0  0  0  0
  9 10  1  0  0  0  0
 10 11  1  0  0  0  0
 11 12  1  0  0  0  0
 11 14  1  0  0  0  0
 12 13  1  0  0  0  0
 14 15  1  0  0  0  0
M  END
> <Index>
5223

> <PropertyFieldDistance>
nan

$$$$
3002988
BBcorina  12272117083D 1   1.00000     0.00000 
CORINA 4.3.0 0026  30.10.2019
 16 17  0  0  0  0  0  0  0  0999 V2000
  -34.9754    6.8839  -41.8690 N   0  0  0  0  0  0  0  0  0  0  0  0
  -35.3854    5.9982  -42.9668 C   0  0  0  0  0  0  0  0  0  0  0  0
  -36.6589    5.2465  -42.5694 C   0  0  0  0  0  0  0  0  0  0  0  0
  -37.0467    4.2810  -43.6917 C   0  0  0  0  0  0  0  0  0  0  0  0
  -35.9497    3.3330  -43.9245 N   0  0  0  0  0  0  0  0  0  0  0  0
  -34.7293    4.0280  -44.3531 C   0  0  0  0  0  0  0  0  0  0  0  0
  -34.2721    4.9859  -43.2506 C   0  0  0  0  0  0  0  0  0  0  0  0
  -36.3179    2.3633  -44.8437 C   0  0  0  0  0  0  0  0  0  0  0  0
  -35.4068    1.3702  -45.1963 C   0  0  0  0  0  0  0  0  0  0  0  0
  -35.7736    0.4136  -46.1048 C   0  0  0  0  0  0  0  0  0  0  0  0
  -37.0648    0.4698  -46.6514 C   0  0  0  0  0  0  0  0  0  0  0  0
  -37.4933   -0.5091  -47.6047 C   0  0  0  0  0  0  0  0  0  0  0  0
  -37.8333   -1.2856  -48.3609 N   0  0  0  0  0  0  0  0  0  0  0  0
  -37.9258    1.4938  -46.2519 C   0  0  0  0  0  0  0  0  0  0  0  0
  -37.5342    2.3908  -45.3709 N   0  0  0  0  0  0  0  0  0  0  0  0
  -34.6619    5.9904  -40.4451 X   0  0  0  0  0  0  0  0  0  0  0  0
  1  2  1  0  0  0  0
  1 16  1  0  0  0  0
  2  3  1  0  0  0  0
  2  7  1  0  0  0  0
  3  4  1  0  0  0  0
  4  5  1  0  0  0  0
  5  6  1  0  0  0  0
  5  8  1  0  0  0  0
  6  7  1  0  0  0  0
  8  9  2  0  0  0  0
  8 15  1  0  0  0  0
  9 10  1  0  0  0  0
 10 11  2  0  0  0  0
 11 12  1  0  0  0  0
 11 14  1  0  0  0  0
 12 13  3  0  0  0  0
 14 15  2  0  0  0  0
M  END
> <Index>
5259

> <PropertyFieldDistance>
nan

$$$$
4600842
BBcorina  12272117083D 1   1.00000     0.00000 
CORINA 4.3.0 0026  30.10.2019
 11 11  0  0  0  0  0  0  0  0999 V2000
  -37.0898    1.9749  -45.6482 C   0  0  0  0  0  0  0  0  0  0  0  0
  -35.7176    2.2414  -45.0261 C   0  0  0  0  0  0  0  0  0  0  0  0
  -35.7053    3.5806  -44.4226 N   0  0  0  0  0  0  0  0  0  0  0  0
  -36.8496    3.7618  -43.5203 C   0  0  0  0  0  0  0  0  0  0  0  0
  -36.8861    5.2093  -43.0249 C   0  0  0  0  0  0  0  0  0  0  0  0
  -35.5794    5.5258  -42.2922 C   0  0  0  0  0  0  0  0  0  0  0  0
  -34.4007    5.2828  -43.2389 C   0  0  0  0  0  0  0  0  0  0  0  0
  -34.4363    3.8331  -43.7280 C   0  0  0  0  0  0  0  0  0  0  0  0
  -33.2716    3.5914  -44.6903 C   0  0  0  0  0  0  0  0  0  0  0  0
  -32.0007    3.7691  -43.9753 N   0  0  0  0  0  0  0  0  0  0  0  0
  -30.6729    3.6458  -45.0457 X   0  0  0  0  0  0  0  0  0  0  0  0
  1  2  1  0  0  0  0
  2  3  1  0  0  0  0
  3  4  1  0  0  0  0
  3  8  1  0  0  0  0
  4  5  1  0  0  0  0
  5  6  1  0  0  0  0
  6  7  1  0  0  0  0
  7  8  1  0  0  0  0
  8  9  1  0  0  0  0
  9 10  1  0  0  0  0
 10 11  1  0  0  0  0
M  END
> <Index>
5267

> <PropertyFieldDistance>
nan

$$$$
3001108
BBcorina  12272117083D 1   1.00000     0.00000 
CORINA 4.3.0 0026  30.10.2019
  9  9  0  0  0  0  0  0  0  0999 V2000
  -38.1278    5.4714  -41.7939 C   0  0  0  0  0  0  0  0  0  0  0  0
  -36.8500    5.2392  -42.6028 C   0  0  0  0  0  0  0  0  0  0  0  0
  -37.1198    4.1352  -43.6444 C   0  0  0  0  0  0  0  0  0  0  0  0
  -35.8606    3.5512  -44.1729 N   0  0  0  0  0  0  0  0  0  0  0  0
  -34.8261    4.5204  -44.4336 C   0  0  0  0  0  0  0  0  0  0  0  0
  -33.9308    4.6176  -43.1841 C   0  0  0  0  0  0  0  0  0  0  0  0
  -34.5331    5.4500  -42.1428 C   0  0  0  0  0  0  0  0  0  0  0  0
  -35.8105    4.9217  -41.7205 O   0  0  0  0  0  0  0  0  0  0  0  0
  -36.1633    2.5898  -45.5543 X   0  0  0  0  0  0  0  0  0  0  0  0
  1  2  1  0  0  0  0
  2  3  1  0  0  0  0
  2  8  1  0  0  0  0
  3  4  1  0  0  0  0
  4  5  1  0  0  0  0
  4  9  1  0  0  0  0
  5  6  1  0  0  0  0
  6  7  1  0  0  0  0
  7  8  1  0  0  0  0
M  END
> <Index>
5281

> <PropertyFieldDistance>
nan

$$$$
3124112
BBcorina  12272117083D 1   1.00000     0.00000 
CORINA 4.3.0 0026  30.10.2019
  9  9  0  0  0  0  0  0  0  0999 V2000
  -32.8483    3.9853  -41.6967 C   0  0  0  0  0  0  0  0  0  0  0  0
  -34.2985    4.1056  -41.4961 N   0  0  0  0  0  0  0  0  0  0  0  0
  -34.5999    4.8097  -40.2426 C   0  0  0  0  0  0  0  0  0  0  0  0
  -34.9348    4.7718  -42.6403 C   0  0  0  0  0  0  0  0  0  0  0  0
  -36.4674    4.8265  -42.4451 C   0  0  0  0  0  0  0  0  0  0  0  0
  -37.0084    4.5497  -43.8703 C   0  0  0  0  0  0  0  0  0  0  0  0
  -36.0599    3.5385  -44.4034 N   0  0  0  0  0  0  0  0  0  0  0  0
  -34.7221    3.9484  -43.9242 C   0  0  0  0  0  0  0  0  0  0  0  0
  -36.1109    3.4912  -46.1120 X   0  0  0  0  0  0  0  0  0  0  0  0
  1  2  1  0  0  0  0
  2  3  1  0  0  0  0
  2  4  1  0  0  0  0
  4  5  1  0  0  0  0
  4  8  1  0  0  0  0
  5  6  1  0  0  0  0
  6  7  1  0  0  0  0
  7  8  1  0  0  0  0
  7  9  1  0  0  0  0
M  END
> <Index>
5293

> <PropertyFieldDistance>
nan

$$$$
12218192
BBcorina  12272117083D 1   1.00000     0.00000 
CORINA 4.3.0 0026  30.10.2019
 12 12  0  0  0  0  0  0  0  0999 V2000
  -36.6782    0.5975  -44.7236 F   0  0  0  0  0  0  0  0  0  0  0  0
  -36.8559    1.6665  -45.6085 C   0  0  0  0  0  0  0  0  0  0  0  0
  -38.1048    2.2554  -45.3838 F   0  0  0  0  0  0  0  0  0  0  0  0
  -35.7545    2.7041  -45.3825 C   0  0  0  0  0  0  0  0  0  0  0  0
  -35.8220    3.1965  -44.0001 N   0  0  0  0  0  0  0  0  0  0  0  0
  -37.0451    3.9981  -43.7824 C   0  0  0  0  0  0  0  0  0  0  0  0
  -36.6284    5.0865  -42.7620 C   0  0  0  0  0  0  0  0  0  0  0  0
  -35.1803    5.4057  -43.2182 C   0  0  0  0  0  0  0  0  0  0  0  0
  -34.6501    4.0316  -43.6788 C   0  0  0  0  0  0  0  0  0  0  0  0
  -33.7733    4.1982  -44.9215 C   0  0  0  0  0  0  0  0  0  0  0  0
  -32.5840    4.9898  -44.5792 N   0  0  0  0  0  0  0  0  0  0  0  0
  -31.6473    5.3215  -45.9707 X   0  0  0  0  0  0  0  0  0  0  0  0
  1  2  1  0  0  0  0
  2  3  1  0  0  0  0
  2  4  1  0  0  0  0
  4  5  1  0  0  0  0
  5  6  1  0  0  0  0
  5  9  1  0  0  0  0
  6  7  1  0  0  0  0
  7  8  1  0  0  0  0
  8  9  1  0  0  0  0
  9 10  1  0  0  0  0
 10 11  1  0  0  0  0
 11 12  1  0  0  0  0
M  END
> <Index>
5309

> <PropertyFieldDistance>
nan

$$$$
13210608
BBcorina  12272117083D 1   1.00000     0.00000 
CORINA 4.3.0 0026  30.10.2019
 13 13  0  0  0  0  0  0  0  0999 V2000
  -36.8013    2.6415  -46.8739 F   0  0  0  0  0  0  0  0  0  0  0  0
  -36.9241    1.8668  -45.7154 C   0  0  0  0  0  0  0  0  0  0  0  0
  -36.8756    0.5103  -46.0543 F   0  0  0  0  0  0  0  0  0  0  0  0
  -38.1449    2.1488  -45.0931 F   0  0  0  0  0  0  0  0  0  0  0  0
  -35.7762    2.1948  -44.7586 C   0  0  0  0  0  0  0  0  0  0  0  0
  -35.7287    3.6450  -44.5297 N   0  0  0  0  0  0  0  0  0  0  0  0
  -37.0041    4.1345  -43.9752 C   0  0  0  0  0  0  0  0  0  0  0  0
  -36.6814    4.8441  -42.6433 C   0  0  0  0  0  0  0  0  0  0  0  0
  -35.1825    5.2133  -42.7984 C   0  0  0  0  0  0  0  0  0  0  0  0
  -34.6414    3.9981  -43.5922 C   0  0  0  0  0  0  0  0  0  0  0  0
  -33.3771    4.3827  -44.3631 C   0  0  0  0  0  0  0  0  0  0  0  0
  -32.9922    3.2798  -45.2539 N   0  0  0  0  0  0  0  0  0  0  0  0
  -31.5803    3.6691  -46.1365 X   0  0  0  0  0  0  0  0  0  0  0  0
  1  2  1  0  0  0  0
  2  3  1  0  0  0  0
  2  4  1  0  0  0  0
  2  5  1  0  0  0  0
  5  6  1  0  0  0  0
  6  7  1  0  0  0  0
  6 10  1  0  0  0  0
  7  8  1  0  0  0  0
  8  9  1  0  0  0  0
  9 10  1  0  0  0  0
 10 11  1  0  0  0  0
 11 12  1  0  0  0  0
 12 13  1  0  0  0  0
M  END
> <Index>
5310

> <PropertyFieldDistance>
nan

$$$$
2907124
BBcorina  12272117083D 1   1.00000     0.00000 
CORINA 4.3.0 0026  30.10.2019
 13 13  0  0  0  0  0  0  0  0999 V2000
  -37.4990    2.7894  -48.1049 C   0  0  0  0  0  0  0  0  0  0  0  0
  -36.5456    2.8217  -47.0410 O   0  0  0  0  0  0  0  0  0  0  0  0
  -36.9136    2.0343  -45.9066 C   0  0  0  0  0  0  0  0  0  0  0  0
  -35.8260    2.1428  -44.8359 C   0  0  0  0  0  0  0  0  0  0  0  0
  -35.7595    3.5254  -44.3438 N   0  0  0  0  0  0  0  0  0  0  0  0
  -36.8788    3.8162  -43.4387 C   0  0  0  0  0  0  0  0  0  0  0  0
  -36.8599    5.2994  -43.0622 C   0  0  0  0  0  0  0  0  0  0  0  0
  -35.5290    5.6313  -42.3816 C   0  0  0  0  0  0  0  0  0  0  0  0
  -35.4801    7.1255  -42.0560 C   0  0  0  0  0  0  0  0  0  0  0  0
  -34.2574    7.4215  -41.2973 N   0  0  0  0  0  0  0  0  0  0  0  0
  -34.3784    5.2741  -43.3265 C   0  0  0  0  0  0  0  0  0  0  0  0
  -34.4692    3.7916  -43.6953 C   0  0  0  0  0  0  0  0  0  0  0  0
  -34.1628    9.0847  -40.9121 X   0  0  0  0  0  0  0  0  0  0  0  0
  1  2  1  0  0  0  0
  2  3  1  0  0  0  0
  3  4  1  0  0  0  0
  4  5  1  0  0  0  0
  5  6  1  0  0  0  0
  5 12  1  0  0  0  0
  6  7  1  0  0  0  0
  7  8  1  0  0  0  0
  8  9  1  0  0  0  0
  8 11  1  0  0  0  0
  9 10  1  0  0  0  0
 10 13  1  0  0  0  0
 11 12  1  0  0  0  0
M  END
> <Index>
5313

> <PropertyFieldDistance>
nan

$$$$
3002400
BBcorina  12272117083D 1   1.00000     0.00000 
CORINA 4.3.0 0026  30.10.2019
 14 15  0  0  0  0  0  0  0  0999 V2000
  -35.0121    5.6975  -42.4672 N   0  0  0  0  0  0  0  0  0  0  0  0
  -36.3414    5.3093  -41.9434 C   0  0  0  0  0  0  0  0  0  0  0  0
  -37.3853    5.1851  -43.0239 C   0  0  0  0  0  0  0  0  0  0  0  0
  -37.4345    3.7185  -43.5076 C   0  0  0  0  0  0  0  0  0  0  0  0
  -36.3486    3.4151  -44.3388 N   0  0  0  0  0  0  0  0  0  0  0  0
  -36.5053    2.0865  -44.9458 C   0  0  0  0  0  0  0  0  0  0  0  0
  -35.4578    1.8947  -46.0121 C   0  0  0  0  0  0  0  0  0  0  0  0
  -34.2908    1.2870  -45.7782 C   0  0  0  0  0  0  0  0  0  0  0  0
  -33.3743    1.2754  -47.2830 S   0  0  0  0  0  0  0  0  0  0  0  0
  -34.6480    2.0961  -48.0750 C   0  0  0  0  0  0  0  0  0  0  0  0
  -35.6153    2.3174  -47.2504 N   0  0  0  0  0  0  0  0  0  0  0  0
  -35.0261    3.5503  -43.6954 C   0  0  0  0  0  0  0  0  0  0  0  0
  -34.6403    5.0076  -43.7197 C   0  0  0  0  0  0  0  0  0  0  0  0
  -33.8019    5.4985  -41.2756 X   0  0  0  0  0  0  0  0  0  0  0  0
  1  2  1  0  0  0  0
  1 13  1  0  0  0  0
  1 14  1  0  0  0  0
  2  3  1  0  0  0  0
  3  4  1  0  0  0  0
  4  5  1  0  0  0  0
  5  6  1  0  0  0  0
  5 12  1  0  0  0  0
  6  7  1  0  0  0  0
  7  8  2  0  0  0  0
  7 11  1  0  0  0  0
  8  9  1  0  0  0  0
  9 10  1  0  0  0  0
 10 11  2  0  0  0  0
 12 13  1  0  0  0  0
M  END
> <Index>
5341

> <PropertyFieldDistance>
nan

$$$$
12622712
BBcorina  12272117083D 1   1.00000     0.00000 
CORINA 4.3.0 0026  30.10.2019
 12 13  0  0  0  0  0  0  0  0999 V2000
  -35.9479    3.4664  -44.1723 N   0  0  0  0  0  0  0  0  0  0  0  0
  -37.0290    4.3869  -43.7977 C   0  0  0  0  0  0  0  0  0  0  0  0
  -36.6586    5.1099  -42.5007 C   0  0  0  0  0  0  0  0  0  0  0  0
  -35.3535    5.8832  -42.7080 C   0  0  0  0  0  0  0  0  0  0  0  0
  -34.2559    4.9088  -43.1443 C   0  0  0  0  0  0  0  0  0  0  0  0
  -34.6958    4.1916  -44.4226 C   0  0  0  0  0  0  0  0  0  0  0  0
  -34.9520    6.5487  -41.4169 C   0  0  0  0  0  0  0  0  0  0  0  0
  -34.6952    5.9425  -40.2576 N   0  0  0  0  0  0  0  0  0  0  0  0
  -34.3851    6.8592  -39.4046 N   0  0  0  0  0  0  0  0  0  0  0  0
  -34.4491    8.0055  -39.9879 N   0  0  0  0  0  0  0  0  0  0  0  0
  -34.7941    7.8343  -41.2179 N   0  0  0  0  0  0  0  0  0  0  0  0
  -36.3899    2.5209  -45.5269 X   0  0  0  0  0  0  0  0  0  0  0  0
  1  2  1  0  0  0  0
  1  6  1  0  0  0  0
  1 12  1  0  0  0  0
  2  3  1  0  0  0  0
  3  4  1  0  0  0  0
  4  5  1  0  0  0  0
  4  7  1  0  0  0  0
  5  6  1  0  0  0  0
  7  8  1  0  0  0  0
  7 11  2  0  0  0  0
  8  9  2  0  0  0  0
  9 10  1  0  0  0  0
 10 11  1  0  0  0  0
M  END
> <Index>
5343

> <PropertyFieldDistance>
nan

$$$$
3014594
BBcorina  12272117083D 1   1.00000     0.00000 
CORINA 4.3.0 0026  30.10.2019
 13 14  0  0  0  0  0  0  0  0999 V2000
  -34.0870    9.5462  -39.1157 S   0  0  0  0  0  0  0  0  0  0  0  0
  -34.4329    8.0242  -39.9331 C   0  0  0  0  0  0  0  0  0  0  0  0
  -34.3894    6.8271  -39.3994 N   0  0  0  0  0  0  0  0  0  0  0  0
  -34.7004    5.9525  -40.2902 N   0  0  0  0  0  0  0  0  0  0  0  0
  -34.9527    6.5499  -41.4177 C   0  0  0  0  0  0  0  0  0  0  0  0
  -34.7850    7.8730  -41.2238 O   0  0  0  0  0  0  0  0  0  0  0  0
  -35.3535    5.8831  -42.7083 C   0  0  0  0  0  0  0  0  0  0  0  0
  -36.6588    5.1098  -42.5008 C   0  0  0  0  0  0  0  0  0  0  0  0
  -37.0292    4.3868  -43.7978 C   0  0  0  0  0  0  0  0  0  0  0  0
  -35.9482    3.4661  -44.1723 N   0  0  0  0  0  0  0  0  0  0  0  0
  -34.6961    4.1914  -44.4229 C   0  0  0  0  0  0  0  0  0  0  0  0
  -34.2549    4.9095  -43.1439 C   0  0  0  0  0  0  0  0  0  0  0  0
  -36.3903    2.5207  -45.5269 X   0  0  0  0  0  0  0  0  0  0  0  0
  1  2  1  0  0  0  0
  2  3  2  0  0  0  0
  2  6  1  0  0  0  0
  3  4  1  0  0  0  0
  4  5  2  0  0  0  0
  5  6  1  0  0  0  0
  5  7  1  0  0  0  0
  7  8  1  0  0  0  0
  7 12  1  0  0  0  0
  8  9  1  0  0  0  0
  9 10  1  0  0  0  0
 10 11  1  0  0  0  0
 10 13  1  0  0  0  0
 11 12  1  0  0  0  0
M  END
> <Index>
5346

> <PropertyFieldDistance>
nan

$$$$
13824260
BBcorina  12272117083D 1   1.00000     0.00000 
CORINA 4.3.0 0026  30.10.2019
 12 12  0  0  0  0  0  0  0  0999 V2000
  -38.2479   -1.1729  -47.4930 C   0  0  0  0  0  0  0  0  0  0  0  0
  -38.0750   -0.3580  -46.2831 N   0  0  0  0  0  0  0  0  0  0  0  0
  -37.0601    0.6836  -46.4905 C   0  0  0  0  0  0  0  0  0  0  0  0
  -36.9083    1.5097  -45.2116 C   0  0  0  0  0  0  0  0  0  0  0  0
  -35.8513    2.5946  -45.4276 C   0  0  0  0  0  0  0  0  0  0  0  0
  -35.7056    3.3877  -44.1998 N   0  0  0  0  0  0  0  0  0  0  0  0
  -36.9305    4.1521  -43.9179 C   0  0  0  0  0  0  0  0  0  0  0  0
  -36.7563    4.9154  -42.6022 C   0  0  0  0  0  0  0  0  0  0  0  0
  -35.6022    5.7551  -42.6923 O   0  0  0  0  0  0  0  0  0  0  0  0
  -34.3921    5.0431  -42.9652 C   0  0  0  0  0  0  0  0  0  0  0  0
  -34.5413    4.2811  -44.2847 C   0  0  0  0  0  0  0  0  0  0  0  0
  -39.5619    0.3253  -45.7867 X   0  0  0  0  0  0  0  0  0  0  0  0
  1  2  1  0  0  0  0
  2  3  1  0  0  0  0
  2 12  1  0  0  0  0
  3  4  1  0  0  0  0
  4  5  1  0  0  0  0
  5  6  1  0  0  0  0
  6  7  1  0  0  0  0
  6 11  1  0  0  0  0
  7  8  1  0  0  0  0
  8  9  1  0  0  0  0
  9 10  1  0  0  0  0
 10 11  1  0  0  0  0
M  END
> <Index>
5351

> <PropertyFieldDistance>
nan

$$$$
3217738
BBcorina  12272117083D 1   1.00000     0.00000 
CORINA 4.3.0 0026  30.10.2019
 14 15  0  0  0  0  0  0  0  0999 V2000
  -37.2024    0.5148  -49.2060 Br  0  0  0  0  0  0  0  0  0  0  0  0
  -36.8444    1.3453  -47.5454 C   0  0  0  0  0  0  0  0  0  0  0  0
  -35.5463    1.4076  -47.0703 C   0  0  0  0  0  0  0  0  0  0  0  0
  -35.2818    2.0135  -45.8578 C   0  0  0  0  0  0  0  0  0  0  0  0
  -36.3202    2.5605  -45.1150 C   0  0  0  0  0  0  0  0  0  0  0  0
  -37.6230    2.4913  -45.5918 C   0  0  0  0  0  0  0  0  0  0  0  0
  -37.8809    1.8889  -46.8074 C   0  0  0  0  0  0  0  0  0  0  0  0
  -36.0556    3.1741  -43.8879 N   0  0  0  0  0  0  0  0  0  0  0  0
  -37.1172    4.1424  -43.5399 C   0  0  0  0  0  0  0  0  0  0  0  0
  -36.3879    5.2752  -42.7754 C   0  0  0  0  0  0  0  0  0  0  0  0
  -35.0431    5.3570  -43.5504 C   0  0  0  0  0  0  0  0  0  0  0  0
  -34.7642    3.8850  -43.9202 C   0  0  0  0  0  0  0  0  0  0  0  0
  -33.9783    5.8865  -42.6880 N   0  0  0  0  0  0  0  0  0  0  0  0
  -33.7760    7.5677  -42.9264 X   0  0  0  0  0  0  0  0  0  0  0  0
  1  2  1  0  0  0  0
  2  3  2  0  0  0  0
  2  7  1  0  0  0  0
  3  4  1  0  0  0  0
  4  5  2  0  0  0  0
  5  6  1  0  0  0  0
  5  8  1  0  0  0  0
  6  7  2  0  0  0  0
  8  9  1  0  0  0  0
  8 12  1  0  0  0  0
  9 10  1  0  0  0  0
 10 11  1  0  0  0  0
 11 12  1  0  0  0  0
 11 13  1  0  0  0  0
 13 14  1  0  0  0  0
M  END
> <Index>
5403

> <PropertyFieldDistance>
nan

$$$$
6198288
BBcorina  12272117083D 1   1.00000     0.00000 
CORINA 4.3.0 0026  30.10.2019
 11 11  0  0  0  0  0  0  0  0999 V2000
  -34.9932    7.5663  -39.3119 N   0  0  0  0  0  0  0  0  0  0  0  0
  -35.2754    6.4530  -40.0172 C   0  0  0  0  0  0  0  0  0  0  0  0
  -35.8330    5.5167  -39.4779 O   0  0  0  0  0  0  0  0  0  0  0  0
  -34.9395    6.3776  -41.3202 N   0  0  0  0  0  0  0  0  0  0  0  0
  -35.2462    5.1675  -42.0868 C   0  0  0  0  0  0  0  0  0  0  0  0
  -36.6793    5.2476  -42.6203 C   0  0  0  0  0  0  0  0  0  0  0  0
  -36.9723    4.0086  -43.4694 C   0  0  0  0  0  0  0  0  0  0  0  0
  -36.0191    3.9414  -44.5845 N   0  0  0  0  0  0  0  0  0  0  0  0
  -34.6396    3.8164  -44.0971 C   0  0  0  0  0  0  0  0  0  0  0  0
  -34.2769    5.0496  -43.2664 C   0  0  0  0  0  0  0  0  0  0  0  0
  -36.4111    2.6624  -45.6495 X   0  0  0  0  0  0  0  0  0  0  0  0
  1  2  1  0  0  0  0
  2  3  2  0  0  0  0
  2  4  1  0  0  0  0
  4  5  1  0  0  0  0
  5  6  1  0  0  0  0
  5 10  1  0  0  0  0
  6  7  1  0  0  0  0
  7  8  1  0  0  0  0
  8  9  1  0  0  0  0
  8 11  1  0  0  0  0
  9 10  1  0  0  0  0
M  END
> <Index>
5419

> <PropertyFieldDistance>
nan

$$$$
3191990
BBcorina  12272117083D 1   1.00000     0.00000 
CORINA 4.3.0 0026  30.10.2019
 12 12  0  0  0  0  0  0  0  0999 V2000
  -37.4512    5.2726  -44.7500 C   0  0  0  0  0  0  0  0  0  0  0  0
  -37.0879    4.3615  -43.5758 C   0  0  0  0  0  0  0  0  0  0  0  0
  -38.3473    3.6592  -43.0643 C   0  0  0  0  0  0  0  0  0  0  0  0
  -36.4762    5.1987  -42.4494 C   0  0  0  0  0  0  0  0  0  0  0  0
  -35.2596    5.7925  -42.9104 O   0  0  0  0  0  0  0  0  0  0  0  0
  -34.2849    4.8421  -43.3486 C   0  0  0  0  0  0  0  0  0  0  0  0
  -34.8745    4.0012  -44.4840 C   0  0  0  0  0  0  0  0  0  0  0  0
  -36.1108    3.3562  -44.0184 N   0  0  0  0  0  0  0  0  0  0  0  0
  -36.6796    2.4929  -45.0620 C   0  0  0  0  0  0  0  0  0  0  0  0
  -35.5716    1.6312  -45.6709 C   0  0  0  0  0  0  0  0  0  0  0  0
  -36.1404    0.7679  -46.7145 N   0  0  0  0  0  0  0  0  0  0  0  0
  -34.9329   -0.2142  -47.4227 X   0  0  0  0  0  0  0  0  0  0  0  0
  1  2  1  0  0  0  0
  2  3  1  0  0  0  0
  2  4  1  0  0  0  0
  2  8  1  0  0  0  0
  4  5  1  0  0  0  0
  5  6  1  0  0  0  0
  6  7  1  0  0  0  0
  7  8  1  0  0  0  0
  8  9  1  0  0  0  0
  9 10  1  0  0  0  0
 10 11  1  0  0  0  0
 11 12  1  0  0  0  0
M  END
> <Index>
5421

> <PropertyFieldDistance>
nan

$$$$
3366016
BBcorina  12272117083D 1   1.00000     0.00000 
CORINA 4.3.0 0026  30.10.2019
 11 11  0  0  0  0  0  0  0  0999 V2000
  -38.4493    3.9934  -43.6109 C   0  0  0  0  0  0  0  0  0  0  0  0
  -36.9789    4.0239  -43.1893 C   0  0  0  0  0  0  0  0  0  0  0  0
  -36.5882    5.4522  -42.8002 C   0  0  0  0  0  0  0  0  0  0  0  0
  -35.1950    5.4892  -42.4792 O   0  0  0  0  0  0  0  0  0  0  0  0
  -34.3463    5.0632  -43.5485 C   0  0  0  0  0  0  0  0  0  0  0  0
  -34.7133    3.6308  -43.9455 C   0  0  0  0  0  0  0  0  0  0  0  0
  -36.1375    3.5793  -44.3099 N   0  0  0  0  0  0  0  0  0  0  0  0
  -36.5191    2.2315  -44.7522 C   0  0  0  0  0  0  0  0  0  0  0  0
  -35.8022    1.9030  -46.0634 C   0  0  0  0  0  0  0  0  0  0  0  0
  -36.1837    0.5551  -46.5057 N   0  0  0  0  0  0  0  0  0  0  0  0
  -35.4031    0.1472  -47.9714 X   0  0  0  0  0  0  0  0  0  0  0  0
  1  2  1  0  0  0  0
  2  3  1  0  0  0  0
  2  7  1  0  0  0  0
  3  4  1  0  0  0  0
  4  5  1  0  0  0  0
  5  6  1  0  0  0  0
  6  7  1  0  0  0  0
  7  8  1  0  0  0  0
  8  9  1  0  0  0  0
  9 10  1  0  0  0  0
 10 11  1  0  0  0  0
M  END
> <Index>
5422

> <PropertyFieldDistance>
nan

$$$$
3067166
BBcorina  12272117083D 1   1.00000     0.00000 
CORINA 4.3.0 0026  30.10.2019
 13 14  0  0  0  0  0  0  0  0999 V2000
  -35.9205    3.4966  -45.0390 C   0  0  0  0  0  0  0  0  0  0  0  0
  -36.3519    2.9301  -43.7541 N   0  0  0  0  0  0  0  0  0  0  0  0
  -37.1563    3.8981  -42.9952 C   0  0  0  0  0  0  0  0  0  0  0  0
  -36.6377    5.3091  -43.1925 C   0  0  0  0  0  0  0  0  0  0  0  0
  -35.3220    5.5449  -42.6133 N   0  0  0  0  0  0  0  0  0  0  0  0
  -34.2626    4.8004  -43.3093 C   0  0  0  0  0  0  0  0  0  0  0  0
  -34.2132    3.3973  -42.7413 C   0  0  0  0  0  0  0  0  0  0  0  0
  -33.1315    3.0007  -41.9804 C   0  0  0  0  0  0  0  0  0  0  0  0
  -33.0882    1.7155  -41.4681 C   0  0  0  0  0  0  0  0  0  0  0  0
  -34.1224    0.8324  -41.7176 C   0  0  0  0  0  0  0  0  0  0  0  0
  -35.2064    1.2289  -42.4779 C   0  0  0  0  0  0  0  0  0  0  0  0
  -35.2497    2.5202  -42.9897 C   0  0  0  0  0  0  0  0  0  0  0  0
  -35.3179    5.1958  -40.9393 X   0  0  0  0  0  0  0  0  0  0  0  0
  1  2  1  0  0  0  0
  2  3  1  0  0  0  0
  2 12  1  0  0  0  0
  3  4  1  0  0  0  0
  4  5  1  0  0  0  0
  5  6  1  0  0  0  0
  5 13  1  0  0  0  0
  6  7  1  0  0  0  0
  7  8  2  0  0  0  0
  7 12  1  0  0  0  0
  8  9  1  0  0  0  0
  9 10  2  0  0  0  0
 10 11  1  0  0  0  0
 11 12  2  0  0  0  0
M  END
> <Index>
5434

> <PropertyFieldDistance>
nan

$$$$
3312592
BBcorina  12272117083D 1   1.00000     0.00000 
CORINA 4.3.0 0026  30.10.2019
  8  8  0  0  0  0  0  0  0  0999 V2000
  -38.0138    5.9835  -42.1414 C   0  0  0  0  0  0  0  0  0  0  0  0
  -36.8193    5.0817  -42.4592 C   0  0  0  0  0  0  0  0  0  0  0  0
  -37.0425    4.3878  -43.8072 C   0  0  0  0  0  0  0  0  0  0  0  0
  -35.9207    3.4918  -44.0974 N   0  0  0  0  0  0  0  0  0  0  0  0
  -34.7009    4.2177  -44.4589 C   0  0  0  0  0  0  0  0  0  0  0  0
  -34.1039    4.8846  -43.2149 C   0  0  0  0  0  0  0  0  0  0  0  0
  -35.3073    6.0868  -42.5707 S   0  0  0  0  0  0  0  0  0  0  0  0
  -36.3394    2.3570  -45.3060 X   0  0  0  0  0  0  0  0  0  0  0  0
  1  2  1  0  0  0  0
  2  3  1  0  0  0  0
  2  7  1  0  0  0  0
  3  4  1  0  0  0  0
  4  5  1  0  0  0  0
  4  8  1  0  0  0  0
  5  6  1  0  0  0  0
  6  7  1  0  0  0  0
M  END
> <Index>
5444

> <PropertyFieldDistance>
nan

$$$$
3081288
BBcorina  12272117083D 1   1.00000     0.00000 
CORINA 4.3.0 0026  30.10.2019
 11 11  0  0  0  0  0  0  0  0999 V2000
  -36.1883    7.5929  -40.7300 N   0  0  0  0  0  0  0  0  0  0  0  0
  -34.8703    6.6842  -41.1538 S   0  0  0  0  0  0  0  0  0  0  0  0
  -34.7569    5.7243  -40.1122 O   0  0  0  0  0  0  0  0  0  0  0  0
  -33.8446    7.6406  -41.3836 O   0  0  0  0  0  0  0  0  0  0  0  0
  -35.3535    5.8833  -42.7079 C   0  0  0  0  0  0  0  0  0  0  0  0
  -36.6585    5.1099  -42.5008 C   0  0  0  0  0  0  0  0  0  0  0  0
  -37.0291    4.3869  -43.7977 C   0  0  0  0  0  0  0  0  0  0  0  0
  -35.9480    3.4664  -44.1723 N   0  0  0  0  0  0  0  0  0  0  0  0
  -34.6958    4.1916  -44.4226 C   0  0  0  0  0  0  0  0  0  0  0  0
  -34.2559    4.9088  -43.1442 C   0  0  0  0  0  0  0  0  0  0  0  0
  -36.3899    2.5211  -45.5270 X   0  0  0  0  0  0  0  0  0  0  0  0
  1  2  1  0  0  0  0
  2  3  2  0  0  0  0
  2  4  2  0  0  0  0
  2  5  1  0  0  0  0
  5  6  1  0  0  0  0
  5 10  1  0  0  0  0
  6  7  1  0  0  0  0
  7  8  1  0  0  0  0
  8  9  1  0  0  0  0
  8 11  1  0  0  0  0
  9 10  1  0  0  0  0
M  END
> <Index>
5447

> <PropertyFieldDistance>
nan

$$$$
3114594
BBcorina  12272117083D 1   1.00000     0.00000 
CORINA 4.3.0 0026  30.10.2019
 11 11  0  0  0  0  0  0  0  0999 V2000
  -36.2159    0.2888  -45.8927 N   0  0  0  0  0  0  0  0  0  0  0  0
  -35.5741    1.5598  -45.5313 C   0  0  0  0  0  0  0  0  0  0  0  0
  -36.5655    2.4358  -44.8097 C   0  0  0  0  0  0  0  0  0  0  0  0
  -37.6955    2.0405  -44.6157 O   0  0  0  0  0  0  0  0  0  0  0  0
  -36.1964    3.6588  -44.3800 N   0  0  0  0  0  0  0  0  0  0  0  0
  -37.1517    4.5244  -43.6751 C   0  0  0  0  0  0  0  0  0  0  0  0
  -36.5316    4.9623  -42.3445 C   0  0  0  0  0  0  0  0  0  0  0  0
  -35.1715    5.6121  -42.6095 C   0  0  0  0  0  0  0  0  0  0  0  0
  -34.2369    4.5935  -43.2661 C   0  0  0  0  0  0  0  0  0  0  0  0
  -34.8294    4.1493  -44.6023 C   0  0  0  0  0  0  0  0  0  0  0  0
  -35.1231   -0.7375  -46.7153 X   0  0  0  0  0  0  0  0  0  0  0  0
  1  2  1  0  0  0  0
  1 11  1  0  0  0  0
  2  3  1  0  0  0  0
  3  4  2  0  0  0  0
  3  5  1  0  0  0  0
  5  6  1  0  0  0  0
  5 10  1  0  0  0  0
  6  7  1  0  0  0  0
  7  8  1  0  0  0  0
  8  9  1  0  0  0  0
  9 10  1  0  0  0  0
M  END
> <Index>
5456

> <PropertyFieldDistance>
nan

$$$$
3885030
BBcorina  12272117083D 1   1.00000     0.00000 
CORINA 4.3.0 0026  30.10.2019
 13 14  0  0  0  0  0  0  0  0999 V2000
  -36.3821    4.6360  -46.0335 O   0  0  0  0  0  0  0  0  0  0  0  0
  -36.6166    3.2505  -46.2930 C   0  0  0  0  0  0  0  0  0  0  0  0
  -35.6250    2.7369  -47.3573 C   0  0  0  0  0  0  0  0  0  0  0  0
  -35.2839    1.2983  -46.8959 C   0  0  0  0  0  0  0  0  0  0  0  0
  -35.2232    1.4390  -45.3547 C   0  0  0  0  0  0  0  0  0  0  0  0
  -36.3610    2.4252  -45.0197 C   0  0  0  0  0  0  0  0  0  0  0  0
  -35.9530    3.3098  -43.9201 N   0  0  0  0  0  0  0  0  0  0  0  0
  -37.0213    4.2619  -43.5860 C   0  0  0  0  0  0  0  0  0  0  0  0
  -36.5888    5.1099  -42.3875 C   0  0  0  0  0  0  0  0  0  0  0  0
  -35.3417    5.8153  -42.7143 N   0  0  0  0  0  0  0  0  0  0  0  0
  -34.2734    4.8632  -43.0484 C   0  0  0  0  0  0  0  0  0  0  0  0
  -34.7059    4.0152  -44.2469 C   0  0  0  0  0  0  0  0  0  0  0  0
  -34.8666    6.8450  -41.4344 X   0  0  0  0  0  0  0  0  0  0  0  0
  1  2  1  0  0  0  0
  2  3  1  0  0  0  0
  2  6  1  0  0  0  0
  3  4  1  0  0  0  0
  4  5  1  0  0  0  0
  5  6  1  0  0  0  0
  6  7  1  0  0  0  0
  7  8  1  0  0  0  0
  7 12  1  0  0  0  0
  8  9  1  0  0  0  0
  9 10  1  0  0  0  0
 10 11  1  0  0  0  0
 10 13  1  0  0  0  0
 11 12  1  0  0  0  0
M  END
> <Index>
5462

> <PropertyFieldDistance>
nan

$$$$
3701202
BBcorina  12272117083D 1   1.00000     0.00000 
CORINA 4.3.0 0026  30.10.2019
 11 11  0  0  0  0  0  0  0  0999 V2000
  -37.1378    0.8089  -46.5648 C   0  0  0  0  0  0  0  0  0  0  0  0
  -36.9408    1.5689  -45.2516 C   0  0  0  0  0  0  0  0  0  0  0  0
  -36.5367    0.6561  -44.2291 O   0  0  0  0  0  0  0  0  0  0  0  0
  -35.8613    2.6370  -45.4375 C   0  0  0  0  0  0  0  0  0  0  0  0
  -35.6798    3.3738  -44.1796 N   0  0  0  0  0  0  0  0  0  0  0  0
  -36.8843    4.1454  -43.8427 C   0  0  0  0  0  0  0  0  0  0  0  0
  -36.6846    4.8330  -42.4901 C   0  0  0  0  0  0  0  0  0  0  0  0
  -35.5048    5.7064  -42.5569 N   0  0  0  0  0  0  0  0  0  0  0  0
  -34.3002    4.9349  -42.8939 C   0  0  0  0  0  0  0  0  0  0  0  0
  -34.4999    4.2473  -44.2466 C   0  0  0  0  0  0  0  0  0  0  0  0
  -35.2934    6.5641  -41.0927 X   0  0  0  0  0  0  0  0  0  0  0  0
  1  2  1  0  0  0  0
  2  3  1  0  0  0  0
  2  4  1  0  0  0  0
  4  5  1  0  0  0  0
  5  6  1  0  0  0  0
  5 10  1  0  0  0  0
  6  7  1  0  0  0  0
  7  8  1  0  0  0  0
  8  9  1  0  0  0  0
  8 11  1  0  0  0  0
  9 10  1  0  0  0  0
M  END
> <Index>
5466

> <PropertyFieldDistance>
nan

$$$$
15537564
BBcorina  12272117083D 1   1.00000     0.00000 
CORINA 4.3.0 0026  30.10.2019
  9  9  0  0  0  0  0  0  0  0999 V2000
  -37.7604    6.1731  -42.2030 C   0  0  0  0  0  0  0  0  0  0  0  0
  -36.7061    5.1010  -42.4861 C   0  0  0  0  0  0  0  0  0  0  0  0
  -37.0337    4.3889  -43.8036 C   0  0  0  0  0  0  0  0  0  0  0  0
  -35.9393    3.4726  -44.1479 N   0  0  0  0  0  0  0  0  0  0  0  0
  -34.6965    4.2000  -44.4346 C   0  0  0  0  0  0  0  0  0  0  0  0
  -34.2117    4.9010  -43.1655 C   0  0  0  0  0  0  0  0  0  0  0  0
  -35.3438    5.7479  -42.6229 C   0  0  0  0  0  0  0  0  0  0  0  0
  -35.1673    6.9021  -42.3146 O   0  0  0  0  0  0  0  0  0  0  0  0
  -36.3745    2.4631  -45.4576 X   0  0  0  0  0  0  0  0  0  0  0  0
  1  2  1  0  0  0  0
  2  3  1  0  0  0  0
  2  7  1  0  0  0  0
  3  4  1  0  0  0  0
  4  5  1  0  0  0  0
  4  9  1  0  0  0  0
  5  6  1  0  0  0  0
  6  7  1  0  0  0  0
  7  8  2  0  0  0  0
M  END
> <Index>
5467

> <PropertyFieldDistance>
nan

$$$$
3114606
BBcorina  12272117083D 1   1.00000     0.00000 
CORINA 4.3.0 0026  30.10.2019
 14 15  0  0  0  0  0  0  0  0999 V2000
  -35.9891    4.1507  -44.7177 N   0  0  0  0  0  0  0  0  0  0  0  0
  -37.1284    4.0440  -43.8405 C   0  0  0  0  0  0  0  0  0  0  0  0
  -37.4997    5.3903  -43.1839 C   0  0  0  0  0  0  0  0  0  0  0  0
  -36.2466    6.1742  -42.7402 C   0  0  0  0  0  0  0  0  0  0  0  0
  -35.2447    5.3264  -42.1432 N   0  0  0  0  0  0  0  0  0  0  0  0
  -34.2615    4.9086  -43.1686 C   0  0  0  0  0  0  0  0  0  0  0  0
  -34.7525    3.7994  -43.9828 C   0  0  0  0  0  0  0  0  0  0  0  0
  -34.6189    5.9660  -41.0873 C   0  0  0  0  0  0  0  0  0  0  0  0
  -33.8625    7.0263  -41.3302 N   0  0  0  0  0  0  0  0  0  0  0  0
  -33.2505    7.6605  -40.3438 C   0  0  0  0  0  0  0  0  0  0  0  0
  -33.4083    7.2030  -39.0451 C   0  0  0  0  0  0  0  0  0  0  0  0
  -34.2065    6.0911  -38.8266 C   0  0  0  0  0  0  0  0  0  0  0  0
  -34.7947    5.5065  -39.8570 N   0  0  0  0  0  0  0  0  0  0  0  0
  -36.1838    3.1603  -46.0981 X   0  0  0  0  0  0  0  0  0  0  0  0
  1  2  1  0  0  0  0
  1  7  1  0  0  0  0
  1 14  1  0  0  0  0
  2  3  1  0  0  0  0
  3  4  1  0  0  0  0
  4  5  1  0  0  0  0
  5  6  1  0  0  0  0
  5  8  1  0  0  0  0
  6  7  1  0  0  0  0
  8  9  2  0  0  0  0
  8 13  1  0  0  0  0
  9 10  1  0  0  0  0
 10 11  2  0  0  0  0
 11 12  1  0  0  0  0
 12 13  2  0  0  0  0
M  END
> <Index>
5468

> <PropertyFieldDistance>
nan

$$$$
6483534
BBcorina  12272117083D 1   1.00000     0.00000 
CORINA 4.3.0 0026  30.10.2019
  7  7  0  0  0  0  0  0  0  0999 V2000
  -34.1138    4.7833  -41.6813 O   0  0  0  0  0  0  0  0  0  0  0  0
  -34.9362    5.0165  -42.8264 C   0  0  0  0  0  0  0  0  0  0  0  0
  -36.4398    4.8672  -42.4624 C   0  0  0  0  0  0  0  0  0  0  0  0
  -37.0524    4.4783  -43.8311 C   0  0  0  0  0  0  0  0  0  0  0  0
  -36.0426    3.6037  -44.4646 N   0  0  0  0  0  0  0  0  0  0  0  0
  -34.7228    3.9140  -43.8849 C   0  0  0  0  0  0  0  0  0  0  0  0
  -36.0306    3.8111  -46.1619 X   0  0  0  0  0  0  0  0  0  0  0  0
  1  2  1  0  0  0  0
  2  3  1  0  0  0  0
  2  6  1  0  0  0  0
  3  4  1  0  0  0  0
  4  5  1  0  0  0  0
  5  6  1  0  0  0  0
  5  7  1  0  0  0  0
M  END
> <Index>
5471

> <PropertyFieldDistance>
nan

$$$$
3218242
BBcorina  12272117083D 1   1.00000     0.00000 
CORINA 4.3.0 0026  30.10.2019
  9  9  0  0  0  0  0  0  0  0999 V2000
  -36.4103    2.1582  -44.7044 C   0  0  0  0  0  0  0  0  0  0  0  0
  -36.0125    3.4860  -44.2301 N   0  0  0  0  0  0  0  0  0  0  0  0
  -36.8523    4.5030  -43.8639 C   0  0  0  0  0  0  0  0  0  0  0  0
  -36.0735    5.5380  -43.4957 C   0  0  0  0  0  0  0  0  0  0  0  0
  -34.7929    5.1616  -43.6287 N   0  0  0  0  0  0  0  0  0  0  0  0
  -34.7487    3.9352  -44.0728 C   0  0  0  0  0  0  0  0  0  0  0  0
  -33.4952    3.1486  -44.3569 C   0  0  0  0  0  0  0  0  0  0  0  0
  -33.0911    3.3587  -45.7535 N   0  0  0  0  0  0  0  0  0  0  0  0
  -31.6692    2.4818  -46.1187 X   0  0  0  0  0  0  0  0  0  0  0  0
  1  2  1  0  0  0  0
  2  3  1  0  0  0  0
  2  6  1  0  0  0  0
  3  4  2  0  0  0  0
  4  5  1  0  0  0  0
  5  6  2  0  0  0  0
  6  7  1  0  0  0  0
  7  8  1  0  0  0  0
  8  9  1  0  0  0  0
M  END
> <Index>
5474

> <PropertyFieldDistance>
nan

$$$$
6725468
BBcorina  12272117083D 1   1.00000     0.00000 
CORINA 4.3.0 0026  30.10.2019
 16 17  0  0  0  0  0  0  0  0999 V2000
  -37.3890    5.3958  -44.7080 C   0  0  0  0  0  0  0  0  0  0  0  0
  -37.0834    4.3734  -43.6116 C   0  0  0  0  0  0  0  0  0  0  0  0
  -36.5389    5.0963  -42.3776 C   0  0  0  0  0  0  0  0  0  0  0  0
  -35.2451    5.8263  -42.7493 C   0  0  0  0  0  0  0  0  0  0  0  0
  -34.2375    4.8138  -43.3008 C   0  0  0  0  0  0  0  0  0  0  0  0
  -34.8488    4.0990  -44.5080 C   0  0  0  0  0  0  0  0  0  0  0  0
  -36.0831    3.4158  -44.1006 N   0  0  0  0  0  0  0  0  0  0  0  0
  -36.6236    2.6052  -45.2000 C   0  0  0  0  0  0  0  0  0  0  0  0
  -35.6703    1.4801  -45.5103 C   0  0  0  0  0  0  0  0  0  0  0  0
  -35.7985    0.2667  -44.8606 C   0  0  0  0  0  0  0  0  0  0  0  0
  -34.9243   -0.7656  -45.1456 C   0  0  0  0  0  0  0  0  0  0  0  0
  -33.9220   -0.5844  -46.0802 C   0  0  0  0  0  0  0  0  0  0  0  0
  -33.7940    0.6290  -46.7299 C   0  0  0  0  0  0  0  0  0  0  0  0
  -34.6714    1.6596  -46.4488 C   0  0  0  0  0  0  0  0  0  0  0  0
  -34.6865    6.4741  -41.5550 N   0  0  0  0  0  0  0  0  0  0  0  0
  -34.2348    5.3136  -40.3830 X   0  0  0  0  0  0  0  0  0  0  0  0
  1  2  1  0  0  0  0
  2  3  1  0  0  0  0
  2  7  1  0  0  0  0
  3  4  1  0  0  0  0
  4  5  1  0  0  0  0
  4 15  1  0  0  0  0
  5  6  1  0  0  0  0
  6  7  1  0  0  0  0
  7  8  1  0  0  0  0
  8  9  1  0  0  0  0
  9 10  2  0  0  0  0
  9 14  1  0  0  0  0
 10 11  1  0  0  0  0
 11 12  2  0  0  0  0
 12 13  1  0  0  0  0
 13 14  2  0  0  0  0
 15 16  1  0  0  0  0
M  END
> <Index>
5489

> <PropertyFieldDistance>
nan

$$$$
3392126
BBcorina  12272117083D 1   1.00000     0.00000 
CORINA 4.3.0 0026  30.10.2019
 14 15  0  0  0  0  0  0  0  0999 V2000
  -36.3260    2.2681  -44.8838 C   0  0  0  0  0  0  0  0  0  0  0  0
  -36.0090    3.4988  -44.1553 N   0  0  0  0  0  0  0  0  0  0  0  0
  -36.9645    4.1142  -43.4349 C   0  0  0  0  0  0  0  0  0  0  0  0
  -38.0779    3.6357  -43.3832 O   0  0  0  0  0  0  0  0  0  0  0  0
  -36.6675    5.3884  -42.6918 C   0  0  0  0  0  0  0  0  0  0  0  0
  -35.2365    5.3570  -42.1542 C   0  0  0  0  0  0  0  0  0  0  0  0
  -34.2945    4.9404  -43.2539 C   0  0  0  0  0  0  0  0  0  0  0  0
  -33.0188    5.4641  -43.3084 C   0  0  0  0  0  0  0  0  0  0  0  0
  -32.1526    5.0770  -44.3232 C   0  0  0  0  0  0  0  0  0  0  0  0
  -30.8591    5.6070  -44.3790 N   0  0  0  0  0  0  0  0  0  0  0  0
  -32.5710    4.1640  -45.2824 C   0  0  0  0  0  0  0  0  0  0  0  0
  -33.8478    3.6411  -45.2276 C   0  0  0  0  0  0  0  0  0  0  0  0
  -34.7132    4.0278  -44.2135 C   0  0  0  0  0  0  0  0  0  0  0  0
  -30.3440    6.7311  -43.1978 X   0  0  0  0  0  0  0  0  0  0  0  0
  1  2  1  0  0  0  0
  2  3  1  0  0  0  0
  2 13  1  0  0  0  0
  3  4  2  0  0  0  0
  3  5  1  0  0  0  0
  5  6  1  0  0  0  0
  6  7  1  0  0  0  0
  7  8  2  0  0  0  0
  7 13  1  0  0  0  0
  8  9  1  0  0  0  0
  9 10  1  0  0  0  0
  9 11  2  0  0  0  0
 10 14  1  0  0  0  0
 11 12  1  0  0  0  0
 12 13  2  0  0  0  0
M  END
> <Index>
5497

> <PropertyFieldDistance>
nan

$$$$
7969156
BBcorina  12272117083D 1   1.00000     0.00000 
CORINA 4.3.0 0026  30.10.2019
 10 10  0  0  0  0  0  0  0  0999 V2000
  -34.6145    1.8039  -46.2917 C   0  0  0  0  0  0  0  0  0  0  0  0
  -36.1059    1.6538  -45.9846 C   0  0  0  0  0  0  0  0  0  0  0  0
  -36.3933    2.1751  -44.5753 C   0  0  0  0  0  0  0  0  0  0  0  0
  -36.0172    3.5927  -44.4913 N   0  0  0  0  0  0  0  0  0  0  0  0
  -36.5016    0.1768  -46.0754 C   0  0  0  0  0  0  0  0  0  0  0  0
  -36.2845   -0.3145  -47.5090 C   0  0  0  0  0  0  0  0  0  0  0  0
  -37.0491    0.4911  -48.4081 O   0  0  0  0  0  0  0  0  0  0  0  0
  -36.6903    1.8743  -48.4012 C   0  0  0  0  0  0  0  0  0  0  0  0
  -36.9220    2.4551  -47.0037 C   0  0  0  0  0  0  0  0  0  0  0  0
  -36.3230    4.2163  -42.9287 X   0  0  0  0  0  0  0  0  0  0  0  0
  1  2  1  0  0  0  0
  2  3  1  0  0  0  0
  2  5  1  0  0  0  0
  2  9  1  0  0  0  0
  3  4  1  0  0  0  0
  4 10  1  0  0  0  0
  5  6  1  0  0  0  0
  6  7  1  0  0  0  0
  7  8  1  0  0  0  0
  8  9  1  0  0  0  0
M  END
> <Index>
5500

> <PropertyFieldDistance>
nan

$$$$
3217970
BBcorina  12272117083D 1   1.00000     0.00000 
CORINA 4.3.0 0026  30.10.2019
 11 11  0  0  0  0  0  0  0  0999 V2000
  -39.8641    6.7387  -41.4533 C   0  0  0  0  0  0  0  0  0  0  0  0
  -38.8963    5.7123  -41.7970 O   0  0  0  0  0  0  0  0  0  0  0  0
  -37.6674    6.1252  -42.1448 C   0  0  0  0  0  0  0  0  0  0  0  0
  -37.4088    7.3054  -42.1614 O   0  0  0  0  0  0  0  0  0  0  0  0
  -36.6101    5.1169  -42.5144 C   0  0  0  0  0  0  0  0  0  0  0  0
  -37.0250    4.3873  -43.7948 C   0  0  0  0  0  0  0  0  0  0  0  0
  -35.9555    3.4605  -44.1931 N   0  0  0  0  0  0  0  0  0  0  0  0
  -34.6941    4.1836  -44.4110 C   0  0  0  0  0  0  0  0  0  0  0  0
  -34.3026    4.9152  -43.1244 C   0  0  0  0  0  0  0  0  0  0  0  0
  -35.3668    5.7881  -42.7357 O   0  0  0  0  0  0  0  0  0  0  0  0
  -36.4010    2.5722  -45.5846 X   0  0  0  0  0  0  0  0  0  0  0  0
  1  2  1  0  0  0  0
  2  3  1  0  0  0  0
  3  4  2  0  0  0  0
  3  5  1  0  0  0  0
  5  6  1  0  0  0  0
  5 10  1  0  0  0  0
  6  7  1  0  0  0  0
  7  8  1  0  0  0  0
  7 11  1  0  0  0  0
  8  9  1  0  0  0  0
  9 10  1  0  0  0  0
M  END
> <Index>
5520

> <PropertyFieldDistance>
nan

$$$$
3173346
BBcorina  12272117083D 1   1.00000     0.00000 
CORINA 4.3.0 0026  30.10.2019
 14 14  0  0  0  0  0  0  0  0999 V2000
  -39.5410    3.1617  -40.6577 C   0  0  0  0  0  0  0  0  0  0  0  0
  -38.7773    3.9843  -41.5992 N   0  0  0  0  0  0  0  0  0  0  0  0
  -37.9092    3.4035  -42.4511 C   0  0  0  0  0  0  0  0  0  0  0  0
  -37.7604    2.1999  -42.4383 O   0  0  0  0  0  0  0  0  0  0  0  0
  -37.1236    4.2496  -43.4196 C   0  0  0  0  0  0  0  0  0  0  0  0
  -36.2133    5.2258  -42.6450 C   0  0  0  0  0  0  0  0  0  0  0  0
  -34.9168    5.2423  -43.4972 C   0  0  0  0  0  0  0  0  0  0  0  0
  -34.8483    3.7709  -43.9838 C   0  0  0  0  0  0  0  0  0  0  0  0
  -36.2509    3.3943  -44.2370 N   0  0  0  0  0  0  0  0  0  0  0  0
  -36.6645    2.4228  -45.0747 C   0  0  0  0  0  0  0  0  0  0  0  0
  -37.8489    2.1948  -45.2012 O   0  0  0  0  0  0  0  0  0  0  0  0
  -35.6552    1.6199  -45.8543 C   0  0  0  0  0  0  0  0  0  0  0  0
  -36.3535    0.6325  -46.6880 N   0  0  0  0  0  0  0  0  0  0  0  0
  -35.2423   -0.3023  -47.5913 X   0  0  0  0  0  0  0  0  0  0  0  0
  1  2  1  0  0  0  0
  2  3  1  0  0  0  0
  3  4  2  0  0  0  0
  3  5  1  0  0  0  0
  5  6  1  0  0  0  0
  5  9  1  0  0  0  0
  6  7  1  0  0  0  0
  7  8  1  0  0  0  0
  8  9  1  0  0  0  0
  9 10  1  0  0  0  0
 10 11  2  0  0  0  0
 10 12  1  0  0  0  0
 12 13  1  0  0  0  0
 13 14  1  0  0  0  0
M  END
> <Index>
5526

> <PropertyFieldDistance>
nan

$$$$
3203024
BBcorina  12272117083D 1   1.00000     0.00000 
CORINA 4.3.0 0026  30.10.2019
 14 15  0  0  0  0  0  0  0  0999 V2000
  -35.2218    5.5422  -42.5492 N   0  0  0  0  0  0  0  0  0  0  0  0
  -36.5308    4.9235  -42.3009 C   0  0  0  0  0  0  0  0  0  0  0  0
  -37.1580    4.5096  -43.6363 C   0  0  0  0  0  0  0  0  0  0  0  0
  -36.1978    3.6636  -44.3612 N   0  0  0  0  0  0  0  0  0  0  0  0
  -34.8216    4.1561  -44.5250 C   0  0  0  0  0  0  0  0  0  0  0  0
  -34.2879    4.5866  -43.1596 C   0  0  0  0  0  0  0  0  0  0  0  0
  -36.5676    2.4663  -44.8575 C   0  0  0  0  0  0  0  0  0  0  0  0
  -37.7244    2.1019  -44.7676 O   0  0  0  0  0  0  0  0  0  0  0  0
  -35.5702    1.5987  -45.5091 C   0  0  0  0  0  0  0  0  0  0  0  0
  -34.4685    2.0162  -46.3886 C   0  0  0  0  0  0  0  0  0  0  0  0
  -33.8328    0.8891  -46.7436 C   0  0  0  0  0  0  0  0  0  0  0  0
  -34.4361   -0.1584  -46.1604 O   0  0  0  0  0  0  0  0  0  0  0  0
  -35.4764    0.2406  -45.4221 C   0  0  0  0  0  0  0  0  0  0  0  0
  -34.5722    6.2002  -41.1108 X   0  0  0  0  0  0  0  0  0  0  0  0
  1  2  1  0  0  0  0
  1  6  1  0  0  0  0
  1 14  1  0  0  0  0
  2  3  1  0  0  0  0
  3  4  1  0  0  0  0
  4  5  1  0  0  0  0
  4  7  1  0  0  0  0
  5  6  1  0  0  0  0
  7  8  2  0  0  0  0
  7  9  1  0  0  0  0
  9 10  1  0  0  0  0
  9 13  2  0  0  0  0
 10 11  2  0  0  0  0
 11 12  1  0  0  0  0
 12 13  1  0  0  0  0
M  END
> <Index>
5528

> <PropertyFieldDistance>
nan

$$$$
4781304
BBcorina  12272117083D 1   1.00000     0.00000 
CORINA 4.3.0 0026  30.10.2019
 15 16  0  0  0  0  0  0  0  0999 V2000
  -33.1881   11.3241  -41.5049 C   0  0  0  0  0  0  0  0  0  0  0  0
  -32.9350    9.8771  -41.5201 N   0  0  0  0  0  0  0  0  0  0  0  0
  -34.0709    9.1501  -42.1026 C   0  0  0  0  0  0  0  0  0  0  0  0
  -35.2856    9.1667  -41.1378 C   0  0  0  0  0  0  0  0  0  0  0  0
  -36.0389    7.8810  -41.5611 C   0  0  0  0  0  0  0  0  0  0  0  0
  -34.9734    6.9057  -41.8765 N   0  0  0  0  0  0  0  0  0  0  0  0
  -33.7486    7.6464  -42.2302 C   0  0  0  0  0  0  0  0  0  0  0  0
  -35.3831    6.0134  -42.9691 C   0  0  0  0  0  0  0  0  0  0  0  0
  -36.6554    5.2624  -42.5667 C   0  0  0  0  0  0  0  0  0  0  0  0
  -37.0433    4.2897  -43.6827 C   0  0  0  0  0  0  0  0  0  0  0  0
  -35.9453    3.3417  -43.9109 N   0  0  0  0  0  0  0  0  0  0  0  0
  -36.3354    2.3075  -44.8787 C   0  0  0  0  0  0  0  0  0  0  0  0
  -34.7262    4.0357  -44.3451 C   0  0  0  0  0  0  0  0  0  0  0  0
  -34.2691    5.0007  -43.2489 C   0  0  0  0  0  0  0  0  0  0  0  0
  -31.4853    9.5173  -42.3525 X   0  0  0  0  0  0  0  0  0  0  0  0
  1  2  1  0  0  0  0
  2  3  1  0  0  0  0
  2 15  1  0  0  0  0
  3  4  1  0  0  0  0
  3  7  1  0  0  0  0
  4  5  1  0  0  0  0
  5  6  1  0  0  0  0
  6  7  1  0  0  0  0
  6  8  1  0  0  0  0
  8  9  1  0  0  0  0
  8 14  1  0  0  0  0
  9 10  1  0  0  0  0
 10 11  1  0  0  0  0
 11 12  1  0  0  0  0
 11 13  1  0  0  0  0
 13 14  1  0  0  0  0
M  END
> <Index>
5531

> <PropertyFieldDistance>
nan

$$$$
4147298
BBcorina  12272117083D 1   1.00000     0.00000 
CORINA 4.3.0 0026  30.10.2019
 12 13  0  0  0  0  0  0  0  0999 V2000
  -37.1869    0.0937  -45.0629 N   0  0  0  0  0  0  0  0  0  0  0  0
  -35.7320   -0.0302  -45.2985 C   0  0  0  0  0  0  0  0  0  0  0  0
  -35.1376    1.3876  -45.2088 C   0  0  0  0  0  0  0  0  0  0  0  0
  -36.3353    2.3075  -44.8787 C   0  0  0  0  0  0  0  0  0  0  0  0
  -37.3629    1.3288  -44.2566 C   0  0  0  0  0  0  0  0  0  0  0  0
  -35.9454    3.3417  -43.9109 N   0  0  0  0  0  0  0  0  0  0  0  0
  -37.0433    4.2898  -43.6827 C   0  0  0  0  0  0  0  0  0  0  0  0
  -36.6554    5.2624  -42.5667 C   0  0  0  0  0  0  0  0  0  0  0  0
  -35.3833    6.0133  -42.9700 C   0  0  0  0  0  0  0  0  0  0  0  0
  -34.2691    5.0007  -43.2489 C   0  0  0  0  0  0  0  0  0  0  0  0
  -34.7262    4.0356  -44.3451 C   0  0  0  0  0  0  0  0  0  0  0  0
  -37.7915   -1.2725  -44.2310 X   0  0  0  0  0  0  0  0  0  0  0  0
  1  2  1  0  0  0  0
  1  5  1  0  0  0  0
  1 12  1  0  0  0  0
  2  3  1  0  0  0  0
  3  4  1  0  0  0  0
  4  5  1  0  0  0  0
  4  6  1  0  0  0  0
  6  7  1  0  0  0  0
  6 11  1  0  0  0  0
  7  8  1  0  0  0  0
  8  9  1  0  0  0  0
  9 10  1  0  0  0  0
 10 11  1  0  0  0  0
M  END
> <Index>
5544

> <PropertyFieldDistance>
nan

$$$$
3490502
BBcorina  12272117083D 1   1.00000     0.00000 
CORINA 4.3.0 0026  30.10.2019
 13 14  0  0  0  0  0  0  0  0999 V2000
  -35.9480    3.4664  -44.1723 N   0  0  0  0  0  0  0  0  0  0  0  0
  -37.0291    4.3869  -43.7977 C   0  0  0  0  0  0  0  0  0  0  0  0
  -36.6585    5.1099  -42.5008 C   0  0  0  0  0  0  0  0  0  0  0  0
  -35.3535    5.8833  -42.7079 C   0  0  0  0  0  0  0  0  0  0  0  0
  -34.2559    4.9088  -43.1442 C   0  0  0  0  0  0  0  0  0  0  0  0
  -34.6958    4.1916  -44.4226 C   0  0  0  0  0  0  0  0  0  0  0  0
  -34.9626    6.5312  -41.4535 N   0  0  0  0  0  0  0  0  0  0  0  0
  -34.7879    7.9791  -41.2889 C   0  0  0  0  0  0  0  0  0  0  0  0
  -34.8177    8.2249  -39.7623 C   0  0  0  0  0  0  0  0  0  0  0  0
  -34.3467    6.8573  -39.2156 C   0  0  0  0  0  0  0  0  0  0  0  0
  -34.7123    5.8757  -40.3071 C   0  0  0  0  0  0  0  0  0  0  0  0
  -34.7705    4.6723  -40.1681 O   0  0  0  0  0  0  0  0  0  0  0  0
  -36.3899    2.5211  -45.5270 X   0  0  0  0  0  0  0  0  0  0  0  0
  1  2  1  0  0  0  0
  1  6  1  0  0  0  0
  1 13  1  0  0  0  0
  2  3  1  0  0  0  0
  3  4  1  0  0  0  0
  4  5  1  0  0  0  0
  4  7  1  0  0  0  0
  5  6  1  0  0  0  0
  7  8  1  0  0  0  0
  7 11  1  0  0  0  0
  8  9  1  0  0  0  0
  9 10  1  0  0  0  0
 10 11  1  0  0  0  0
 11 12  2  0  0  0  0
M  END
> <Index>
5559

> <PropertyFieldDistance>
nan

$$$$
7691698
BBcorina  12272117083D 1   1.00000     0.00000 
CORINA 4.3.0 0026  30.10.2019
  7  7  0  0  0  0  0  0  0  0999 V2000
  -35.7766    2.1904  -45.3857 N   0  0  0  0  0  0  0  0  0  0  0  0
  -35.2672    3.3013  -44.5705 C   0  0  0  0  0  0  0  0  0  0  0  0
  -34.4685    2.7640  -43.3619 C   0  0  0  0  0  0  0  0  0  0  0  0
  -35.2437    3.2881  -42.1328 C   0  0  0  0  0  0  0  0  0  0  0  0
  -35.9569    4.4497  -42.6167 O   0  0  0  0  0  0  0  0  0  0  0  0
  -36.4336    4.0864  -43.9306 C   0  0  0  0  0  0  0  0  0  0  0  0
  -36.8101    1.1819  -44.4698 X   0  0  0  0  0  0  0  0  0  0  0  0
  1  2  1  0  0  0  0
  1  7  1  0  0  0  0
  2  3  1  0  0  0  0
  2  6  1  0  0  0  0
  3  4  1  0  0  0  0
  4  5  1  0  0  0  0
  5  6  1  0  0  0  0
M  END
> <Index>
5560

> <PropertyFieldDistance>
nan

$$$$
4004798
BBcorina  12272117083D 1   1.00000     0.00000 
CORINA 4.3.0 0026  30.10.2019
  8  8  0  0  0  0  0  0  0  0999 V2000
  -35.6403    3.5046  -46.1706 C   0  0  0  0  0  0  0  0  0  0  0  0
  -34.8358    3.0929  -45.0125 N   0  0  0  0  0  0  0  0  0  0  0  0
  -35.6812    2.8964  -43.8273 C   0  0  0  0  0  0  0  0  0  0  0  0
  -34.8480    2.3414  -42.6400 C   0  0  0  0  0  0  0  0  0  0  0  0
  -35.6564    2.8823  -41.4339 C   0  0  0  0  0  0  0  0  0  0  0  0
  -36.1183    4.1797  -41.8440 O   0  0  0  0  0  0  0  0  0  0  0  0
  -36.1810    4.2480  -43.2734 C   0  0  0  0  0  0  0  0  0  0  0  0
  -33.9342    1.6827  -45.3628 X   0  0  0  0  0  0  0  0  0  0  0  0
  1  2  1  0  0  0  0
  2  3  1  0  0  0  0
  2  8  1  0  0  0  0
  3  4  1  0  0  0  0
  3  7  1  0  0  0  0
  4  5  1  0  0  0  0
  5  6  1  0  0  0  0
  6  7  1  0  0  0  0
M  END
> <Index>
5561

> <PropertyFieldDistance>
nan

$$$$
3312558
BBcorina  12272117083D 1   1.00000     0.00000 
CORINA 4.3.0 0026  30.10.2019
 11 11  0  0  0  0  0  0  0  0999 V2000
  -35.6695    8.8122  -40.4686 C   0  0  0  0  0  0  0  0  0  0  0  0
  -35.9733    7.9864  -41.6450 N   0  0  0  0  0  0  0  0  0  0  0  0
  -34.9562    6.9432  -41.8326 C   0  0  0  0  0  0  0  0  0  0  0  0
  -35.3833    6.0133  -42.9701 C   0  0  0  0  0  0  0  0  0  0  0  0
  -36.6554    5.2624  -42.5667 C   0  0  0  0  0  0  0  0  0  0  0  0
  -37.0433    4.2897  -43.6827 C   0  0  0  0  0  0  0  0  0  0  0  0
  -35.9453    3.3417  -43.9110 N   0  0  0  0  0  0  0  0  0  0  0  0
  -36.3354    2.3075  -44.8786 C   0  0  0  0  0  0  0  0  0  0  0  0
  -34.7262    4.0356  -44.3451 C   0  0  0  0  0  0  0  0  0  0  0  0
  -34.2691    5.0007  -43.2489 C   0  0  0  0  0  0  0  0  0  0  0  0
  -36.1274    8.9517  -43.0480 X   0  0  0  0  0  0  0  0  0  0  0  0
  1  2  1  0  0  0  0
  2  3  1  0  0  0  0
  2 11  1  0  0  0  0
  3  4  1  0  0  0  0
  4  5  1  0  0  0  0
  4 10  1  0  0  0  0
  5  6  1  0  0  0  0
  6  7  1  0  0  0  0
  7  8  1  0  0  0  0
  7  9  1  0  0  0  0
  9 10  1  0  0  0  0
M  END
> <Index>
5562

> <PropertyFieldDistance>
nan

$$$$
3490540
BBcorina  12272117083D 1   1.00000     0.00000 
CORINA 4.3.0 0026  30.10.2019
 12 12  0  0  0  0  0  0  0  0999 V2000
  -35.5741    1.5591  -45.5304 C   0  0  0  0  0  0  0  0  0  0  0  0
  -36.5653    2.4359  -44.8095 C   0  0  0  0  0  0  0  0  0  0  0  0
  -37.6957    2.0413  -44.6162 O   0  0  0  0  0  0  0  0  0  0  0  0
  -36.1956    3.6587  -44.3797 N   0  0  0  0  0  0  0  0  0  0  0  0
  -37.1507    4.5250  -43.6754 C   0  0  0  0  0  0  0  0  0  0  0  0
  -36.5342    4.9626  -42.3430 C   0  0  0  0  0  0  0  0  0  0  0  0
  -35.1703    5.6112  -42.6088 C   0  0  0  0  0  0  0  0  0  0  0  0
  -34.5636    6.0806  -41.2849 C   0  0  0  0  0  0  0  0  0  0  0  0
  -35.3991    7.1452  -40.7135 N   0  0  0  0  0  0  0  0  0  0  0  0
  -34.2360    4.5920  -43.2648 C   0  0  0  0  0  0  0  0  0  0  0  0
  -34.8297    4.1504  -44.6061 C   0  0  0  0  0  0  0  0  0  0  0  0
  -34.7553    7.6996  -39.2296 X   0  0  0  0  0  0  0  0  0  0  0  0
  1  2  1  0  0  0  0
  2  3  2  0  0  0  0
  2  4  1  0  0  0  0
  4  5  1  0  0  0  0
  4 11  1  0  0  0  0
  5  6  1  0  0  0  0
  6  7  1  0  0  0  0
  7  8  1  0  0  0  0
  7 10  1  0  0  0  0
  8  9  1  0  0  0  0
  9 12  1  0  0  0  0
 10 11  1  0  0  0  0
M  END
> <Index>
5571

> <PropertyFieldDistance>
nan

$$$$
3392328
BBcorina  12272117083D 1   1.00000     0.00000 
CORINA 4.3.0 0026  30.10.2019
 10 10  0  0  0  0  0  0  0  0999 V2000
  -31.5952    6.5523  -42.6255 C   0  0  0  0  0  0  0  0  0  0  0  0
  -32.6866    6.0089  -43.4450 N   0  0  0  0  0  0  0  0  0  0  0  0
  -33.9380    5.9434  -42.6786 C   0  0  0  0  0  0  0  0  0  0  0  0
  -35.0487    5.3737  -43.5634 C   0  0  0  0  0  0  0  0  0  0  0  0
  -36.3861    5.2931  -42.7813 C   0  0  0  0  0  0  0  0  0  0  0  0
  -37.1153    4.1469  -43.5256 C   0  0  0  0  0  0  0  0  0  0  0  0
  -36.0496    3.1808  -43.8675 N   0  0  0  0  0  0  0  0  0  0  0  0
  -36.3312    2.5176  -45.1478 C   0  0  0  0  0  0  0  0  0  0  0  0
  -34.7628    3.8988  -43.9162 C   0  0  0  0  0  0  0  0  0  0  0  0
  -32.2733    4.4742  -44.0760 X   0  0  0  0  0  0  0  0  0  0  0  0
  1  2  1  0  0  0  0
  2  3  1  0  0  0  0
  2 10  1  0  0  0  0
  3  4  1  0  0  0  0
  4  5  1  0  0  0  0
  4  9  1  0  0  0  0
  5  6  1  0  0  0  0
  6  7  1  0  0  0  0
  7  8  1  0  0  0  0
  7  9  1  0  0  0  0
M  END
> <Index>
5573

> <PropertyFieldDistance>
nan

$$$$
4963460
BBcorina  12272117083D 1   1.00000     0.00000 
CORINA 4.3.0 0026  30.10.2019
 12 12  0  0  0  0  0  0  0  0999 V2000
  -34.2162   -0.2324  -45.1276 C   0  0  0  0  0  0  0  0  0  0  0  0
  -35.2254    0.6851  -44.7013 O   0  0  0  0  0  0  0  0  0  0  0  0
  -35.5861    1.6525  -45.6893 C   0  0  0  0  0  0  0  0  0  0  0  0
  -36.6679    2.5768  -45.1269 C   0  0  0  0  0  0  0  0  0  0  0  0
  -37.8492    1.7387  -44.6339 C   0  0  0  0  0  0  0  0  0  0  0  0
  -36.1163    3.3517  -44.0074 N   0  0  0  0  0  0  0  0  0  0  0  0
  -37.0912    4.3363  -43.5176 C   0  0  0  0  0  0  0  0  0  0  0  0
  -36.5097    5.0659  -42.3043 C   0  0  0  0  0  0  0  0  0  0  0  0
  -35.2509    5.7207  -42.6867 N   0  0  0  0  0  0  0  0  0  0  0  0
  -34.2760    4.7361  -43.1766 C   0  0  0  0  0  0  0  0  0  0  0  0
  -34.8575    4.0066  -44.3899 C   0  0  0  0  0  0  0  0  0  0  0  0
  -34.6088    6.6227  -41.3836 X   0  0  0  0  0  0  0  0  0  0  0  0
  1  2  1  0  0  0  0
  2  3  1  0  0  0  0
  3  4  1  0  0  0  0
  4  5  1  0  0  0  0
  4  6  1  0  0  0  0
  6  7  1  0  0  0  0
  6 11  1  0  0  0  0
  7  8  1  0  0  0  0
  8  9  1  0  0  0  0
  9 10  1  0  0  0  0
  9 12  1  0  0  0  0
 10 11  1  0  0  0  0
M  END
> <Index>
5584

> <PropertyFieldDistance>
nan

$$$$
3197598
BBcorina  12272117083D 1   1.00000     0.00000 
CORINA 4.3.0 0026  30.10.2019
  9  9  0  0  0  0  0  0  0  0999 V2000
  -36.2948    3.5010  -44.5208 N   0  0  0  0  0  0  0  0  0  0  0  0
  -37.0274    4.5384  -43.8047 C   0  0  0  0  0  0  0  0  0  0  0  0
  -36.4433    4.7456  -42.4052 C   0  0  0  0  0  0  0  0  0  0  0  0
  -35.3213    5.6949  -42.4973 N   0  0  0  0  0  0  0  0  0  0  0  0
  -34.1768    5.3251  -43.0799 C   0  0  0  0  0  0  0  0  0  0  0  0
  -33.2520    6.1064  -43.1520 O   0  0  0  0  0  0  0  0  0  0  0  0
  -34.0365    3.9289  -43.6506 C   0  0  0  0  0  0  0  0  0  0  0  0
  -34.9249    3.8238  -44.8935 C   0  0  0  0  0  0  0  0  0  0  0  0
  -36.3671    2.0128  -43.6815 X   0  0  0  0  0  0  0  0  0  0  0  0
  1  2  1  0  0  0  0
  1  8  1  0  0  0  0
  1  9  1  0  0  0  0
  2  3  1  0  0  0  0
  3  4  1  0  0  0  0
  4  5  1  0  0  0  0
  5  6  2  0  0  0  0
  5  7  1  0  0  0  0
  7  8  1  0  0  0  0
M  END
> <Index>
5595

> <PropertyFieldDistance>
nan

$$$$
3219796
BBcorina  12272117083D 1   1.00000     0.00000 
CORINA 4.3.0 0026  30.10.2019
 10 10  0  0  0  0  0  0  0  0999 V2000
  -36.3534    0.6323  -46.6879 N   0  0  0  0  0  0  0  0  0  0  0  0
  -35.6551    1.6200  -45.8543 C   0  0  0  0  0  0  0  0  0  0  0  0
  -36.6645    2.4228  -45.0747 C   0  0  0  0  0  0  0  0  0  0  0  0
  -37.8489    2.1948  -45.2012 O   0  0  0  0  0  0  0  0  0  0  0  0
  -36.2510    3.3942  -44.2370 N   0  0  0  0  0  0  0  0  0  0  0  0
  -37.1237    4.2497  -43.4196 C   0  0  0  0  0  0  0  0  0  0  0  0
  -36.2133    5.2258  -42.6450 C   0  0  0  0  0  0  0  0  0  0  0  0
  -34.9168    5.2422  -43.4972 C   0  0  0  0  0  0  0  0  0  0  0  0
  -34.8483    3.7709  -43.9838 C   0  0  0  0  0  0  0  0  0  0  0  0
  -35.2423   -0.3023  -47.5912 X   0  0  0  0  0  0  0  0  0  0  0  0
  1  2  1  0  0  0  0
  1 10  1  0  0  0  0
  2  3  1  0  0  0  0
  3  4  2  0  0  0  0
  3  5  1  0  0  0  0
  5  6  1  0  0  0  0
  5  9  1  0  0  0  0
  6  7  1  0  0  0  0
  7  8  1  0  0  0  0
  8  9  1  0  0  0  0
M  END
> <Index>
5599

> <PropertyFieldDistance>
nan

$$$$
3307918
BBcorina  12272117083D 1   1.00000     0.00000 
CORINA 4.3.0 0026  30.10.2019
 16 17  0  0  0  0  0  0  0  0999 V2000
  -36.4278    2.6264  -45.2581 C   0  0  0  0  0  0  0  0  0  0  0  0
  -35.9860    3.2987  -44.0290 N   0  0  0  0  0  0  0  0  0  0  0  0
  -37.0075    4.2387  -43.5465 C   0  0  0  0  0  0  0  0  0  0  0  0
  -36.5442    4.8575  -42.2256 C   0  0  0  0  0  0  0  0  0  0  0  0
  -35.2595    5.5405  -42.4316 N   0  0  0  0  0  0  0  0  0  0  0  0
  -34.2380    4.6006  -42.9140 C   0  0  0  0  0  0  0  0  0  0  0  0
  -34.7013    3.9817  -44.2350 C   0  0  0  0  0  0  0  0  0  0  0  0
  -34.8394    6.1798  -41.2629 C   0  0  0  0  0  0  0  0  0  0  0  0
  -34.6239    5.4429  -40.1055 C   0  0  0  0  0  0  0  0  0  0  0  0
  -34.2035    6.0774  -38.9529 C   0  0  0  0  0  0  0  0  0  0  0  0
  -34.0077    7.4462  -38.9476 C   0  0  0  0  0  0  0  0  0  0  0  0
  -34.2269    8.1838  -40.0968 C   0  0  0  0  0  0  0  0  0  0  0  0
  -34.6417    7.5550  -41.2540 C   0  0  0  0  0  0  0  0  0  0  0  0
  -34.8792    8.3593  -42.5061 C   0  0  0  0  0  0  0  0  0  0  0  0
  -36.3190    8.6045  -42.6647 N   0  0  0  0  0  0  0  0  0  0  0  0
  -36.6333    9.5164  -44.0768 X   0  0  0  0  0  0  0  0  0  0  0  0
  1  2  1  0  0  0  0
  2  3  1  0  0  0  0
  2  7  1  0  0  0  0
  3  4  1  0  0  0  0
  4  5  1  0  0  0  0
  5  6  1  0  0  0  0
  5  8  1  0  0  0  0
  6  7  1  0  0  0  0
  8  9  2  0  0  0  0
  8 13  1  0  0  0  0
  9 10  1  0  0  0  0
 10 11  2  0  0  0  0
 11 12  1  0  0  0  0
 12 13  2  0  0  0  0
 13 14  1  0  0  0  0
 14 15  1  0  0  0  0
 15 16  1  0  0  0  0
M  END
> <Index>
5602

> <PropertyFieldDistance>
nan

$$$$
4433648
BBcorina  12272117083D 1   1.00000     0.00000 
CORINA 4.3.0 0026  30.10.2019
 10 10  0  0  0  0  0  0  0  0999 V2000
  -36.8490    1.6584  -45.6074 C   0  0  0  0  0  0  0  0  0  0  0  0
  -35.7596    2.7097  -45.3863 C   0  0  0  0  0  0  0  0  0  0  0  0
  -35.8243    3.1982  -44.0024 N   0  0  0  0  0  0  0  0  0  0  0  0
  -37.0460    4.0006  -43.7803 C   0  0  0  0  0  0  0  0  0  0  0  0
  -36.6262    5.0856  -42.7574 C   0  0  0  0  0  0  0  0  0  0  0  0
  -35.1786    5.4043  -43.2151 C   0  0  0  0  0  0  0  0  0  0  0  0
  -34.6508    4.0309  -43.6806 C   0  0  0  0  0  0  0  0  0  0  0  0
  -34.3795    5.9146  -42.0929 N   0  0  0  0  0  0  0  0  0  0  0  0
  -34.8001    7.2722  -41.7217 C   0  0  0  0  0  0  0  0  0  0  0  0
  -34.4635    4.8585  -40.7506 X   0  0  0  0  0  0  0  0  0  0  0  0
  1  2  1  0  0  0  0
  2  3  1  0  0  0  0
  3  4  1  0  0  0  0
  3  7  1  0  0  0  0
  4  5  1  0  0  0  0
  5  6  1  0  0  0  0
  6  7  1  0  0  0  0
  6  8  1  0  0  0  0
  8  9  1  0  0  0  0
  8 10  1  0  0  0  0
M  END
> <Index>
5605

> <PropertyFieldDistance>
nan

$$$$
4278706
BBcorina  12272117083D 1   1.00000     0.00000 
CORINA 4.3.0 0026  30.10.2019
 11 12  0  0  0  0  0  0  0  0999 V2000
  -34.4604    6.1537  -42.5057 N   0  0  0  0  0  0  0  0  0  0  0  0
  -35.2041    4.8877  -42.4599 C   0  0  0  0  0  0  0  0  0  0  0  0
  -36.6808    5.1182  -42.8549 C   0  0  0  0  0  0  0  0  0  0  0  0
  -37.0109    3.8669  -43.7069 C   0  0  0  0  0  0  0  0  0  0  0  0
  -35.7541    3.6284  -44.4617 N   0  0  0  0  0  0  0  0  0  0  0  0
  -35.6888    2.2452  -44.9518 C   0  0  0  0  0  0  0  0  0  0  0  0
  -36.9667    1.9178  -45.7268 C   0  0  0  0  0  0  0  0  0  0  0  0
  -37.0429    0.5565  -46.4208 C   0  0  0  0  0  0  0  0  0  0  0  0
  -37.8734    0.8217  -45.1635 C   0  0  0  0  0  0  0  0  0  0  0  0
  -34.6547    3.9068  -43.5122 C   0  0  0  0  0  0  0  0  0  0  0  0
  -34.6833    6.9414  -44.0071 X   0  0  0  0  0  0  0  0  0  0  0  0
  1  2  1  0  0  0  0
  1 11  1  0  0  0  0
  2  3  1  0  0  0  0
  2 10  1  0  0  0  0
  3  4  1  0  0  0  0
  4  5  1  0  0  0  0
  5  6  1  0  0  0  0
  5 10  1  0  0  0  0
  6  7  1  0  0  0  0
  7  8  1  0  0  0  0
  7  9  1  0  0  0  0
  8  9  1  0  0  0  0
M  END
> <Index>
5606

> <PropertyFieldDistance>
nan

$$$$
11680464
BBcorina  12272117083D 1   1.00000     0.00000 
CORINA 4.3.0 0026  30.10.2019
 10 10  0  0  0  0  0  0  0  0999 V2000
  -33.7618    7.4734  -39.5603 C   0  0  0  0  0  0  0  0  0  0  0  0
  -34.0038    6.1492  -40.2876 C   0  0  0  0  0  0  0  0  0  0  0  0
  -34.9483    6.3499  -41.3410 O   0  0  0  0  0  0  0  0  0  0  0  0
  -35.2463    5.1684  -42.0875 C   0  0  0  0  0  0  0  0  0  0  0  0
  -36.6796    5.2477  -42.6204 C   0  0  0  0  0  0  0  0  0  0  0  0
  -36.9724    4.0084  -43.4693 C   0  0  0  0  0  0  0  0  0  0  0  0
  -36.0194    3.9412  -44.5845 N   0  0  0  0  0  0  0  0  0  0  0  0
  -34.6397    3.8168  -44.0973 C   0  0  0  0  0  0  0  0  0  0  0  0
  -34.2763    5.0495  -43.2662 C   0  0  0  0  0  0  0  0  0  0  0  0
  -36.4111    2.6614  -45.6488 X   0  0  0  0  0  0  0  0  0  0  0  0
  1  2  1  0  0  0  0
  2  3  1  0  0  0  0
  3  4  1  0  0  0  0
  4  5  1  0  0  0  0
  4  9  1  0  0  0  0
  5  6  1  0  0  0  0
  6  7  1  0  0  0  0
  7  8  1  0  0  0  0
  7 10  1  0  0  0  0
  8  9  1  0  0  0  0
M  END
> <Index>
5616

> <PropertyFieldDistance>
nan

$$$$
8165818
BBcorina  12272117083D 1   1.00000     0.00000 
CORINA 4.3.0 0026  30.10.2019
  9  9  0  0  0  0  0  0  0  0999 V2000
  -31.8592    4.8769  -43.1459 C   0  0  0  0  0  0  0  0  0  0  0  0
  -33.0478    5.6303  -43.3937 O   0  0  0  0  0  0  0  0  0  0  0  0
  -34.2559    4.9088  -43.1443 C   0  0  0  0  0  0  0  0  0  0  0  0
  -35.3534    5.8832  -42.7079 C   0  0  0  0  0  0  0  0  0  0  0  0
  -36.6587    5.1099  -42.5007 C   0  0  0  0  0  0  0  0  0  0  0  0
  -37.0291    4.3869  -43.7977 C   0  0  0  0  0  0  0  0  0  0  0  0
  -35.9479    3.4664  -44.1723 N   0  0  0  0  0  0  0  0  0  0  0  0
  -34.6958    4.1916  -44.4226 C   0  0  0  0  0  0  0  0  0  0  0  0
  -36.3899    2.5210  -45.5270 X   0  0  0  0  0  0  0  0  0  0  0  0
  1  2  1  0  0  0  0
  2  3  1  0  0  0  0
  3  4  1  0  0  0  0
  3  8  1  0  0  0  0
  4  5  1  0  0  0  0
  5  6  1  0  0  0  0
  6  7  1  0  0  0  0
  7  8  1  0  0  0  0
  7  9  1  0  0  0  0
M  END
> <Index>
5618

> <PropertyFieldDistance>
nan

$$$$
15766656
BBcorina  12272117083D 1   1.00000     0.00000 
CORINA 4.3.0 0026  30.10.2019
  9  9  0  0  0  0  0  0  0  0999 V2000
  -32.8483    3.9853  -41.6967 C   0  0  0  0  0  0  0  0  0  0  0  0
  -34.2985    4.1056  -41.4961 N   0  0  0  0  0  0  0  0  0  0  0  0
  -34.5999    4.8097  -40.2426 C   0  0  0  0  0  0  0  0  0  0  0  0
  -34.9348    4.7718  -42.6403 C   0  0  0  0  0  0  0  0  0  0  0  0
  -36.4674    4.8265  -42.4451 C   0  0  0  0  0  0  0  0  0  0  0  0
  -37.0084    4.5497  -43.8703 C   0  0  0  0  0  0  0  0  0  0  0  0
  -36.0599    3.5385  -44.4034 N   0  0  0  0  0  0  0  0  0  0  0  0
  -34.7221    3.9484  -43.9242 C   0  0  0  0  0  0  0  0  0  0  0  0
  -36.1109    3.4912  -46.1120 X   0  0  0  0  0  0  0  0  0  0  0  0
  1  2  1  0  0  0  0
  2  3  1  0  0  0  0
  2  4  1  0  0  0  0
  4  5  1  0  0  0  0
  4  8  1  0  0  0  0
  5  6  1  0  0  0  0
  6  7  1  0  0  0  0
  7  8  1  0  0  0  0
  7  9  1  0  0  0  0
M  END
> <Index>
5621

> <PropertyFieldDistance>
nan

$$$$
11353598
BBcorina  12272117083D 1   1.00000     0.00000 
CORINA 4.3.0 0026  30.10.2019
  9  9  0  0  0  0  0  0  0  0999 V2000
  -36.6974    4.8240  -45.8950 O   0  0  0  0  0  0  0  0  0  0  0  0
  -35.9349    4.3161  -44.7983 C   0  0  0  0  0  0  0  0  0  0  0  0
  -36.8514    4.1143  -43.5900 C   0  0  0  0  0  0  0  0  0  0  0  0
  -36.0350    3.5705  -42.4158 C   0  0  0  0  0  0  0  0  0  0  0  0
  -35.4063    2.2320  -42.8082 C   0  0  0  0  0  0  0  0  0  0  0  0
  -34.4898    2.4339  -44.0166 C   0  0  0  0  0  0  0  0  0  0  0  0
  -35.3062    2.9776  -45.1908 C   0  0  0  0  0  0  0  0  0  0  0  0
  -34.6224    1.7099  -41.6809 N   0  0  0  0  0  0  0  0  0  0  0  0
  -34.5992    0.0001  -41.6903 X   0  0  0  0  0  0  0  0  0  0  0  0
  1  2  1  0  0  0  0
  2  3  1  0  0  0  0
  2  7  1  0  0  0  0
  3  4  1  0  0  0  0
  4  5  1  0  0  0  0
  5  6  1  0  0  0  0
  5  8  1  0  0  0  0
  6  7  1  0  0  0  0
  8  9  1  0  0  0  0
M  END
> <Index>
5636

> <PropertyFieldDistance>
nan

$$$$
4820620
BBcorina  12272117083D 1   1.00000     0.00000 
CORINA 4.3.0 0026  30.10.2019
 10 10  0  0  0  0  0  0  0  0999 V2000
  -35.6254    8.2480  -39.8379 C   0  0  0  0  0  0  0  0  0  0  0  0
  -35.9137    7.5523  -41.0524 O   0  0  0  0  0  0  0  0  0  0  0  0
  -34.9453    6.5600  -41.3980 C   0  0  0  0  0  0  0  0  0  0  0  0
  -35.3535    5.8833  -42.7079 C   0  0  0  0  0  0  0  0  0  0  0  0
  -36.6585    5.1099  -42.5008 C   0  0  0  0  0  0  0  0  0  0  0  0
  -37.0291    4.3869  -43.7977 C   0  0  0  0  0  0  0  0  0  0  0  0
  -35.9480    3.4664  -44.1723 N   0  0  0  0  0  0  0  0  0  0  0  0
  -34.6958    4.1916  -44.4226 C   0  0  0  0  0  0  0  0  0  0  0  0
  -34.2559    4.9088  -43.1442 C   0  0  0  0  0  0  0  0  0  0  0  0
  -36.3899    2.5211  -45.5270 X   0  0  0  0  0  0  0  0  0  0  0  0
  1  2  1  0  0  0  0
  2  3  1  0  0  0  0
  3  4  1  0  0  0  0
  4  5  1  0  0  0  0
  4  9  1  0  0  0  0
  5  6  1  0  0  0  0
  6  7  1  0  0  0  0
  7  8  1  0  0  0  0
  7 10  1  0  0  0  0
  8  9  1  0  0  0  0
M  END
> <Index>
5640

> <PropertyFieldDistance>
nan

$$$$
4860940
BBcorina  12272117083D 1   1.00000     0.00000 
CORINA 4.3.0 0026  30.10.2019
 16 17  0  0  0  0  0  0  0  0999 V2000
  -33.4468    7.0715  -41.6432 C   0  0  0  0  0  0  0  0  0  0  0  0
  -34.8285    6.9537  -42.1282 N   0  0  0  0  0  0  0  0  0  0  0  0
  -35.1651    5.5548  -42.4240 C   0  0  0  0  0  0  0  0  0  0  0  0
  -36.6444    5.4542  -42.8062 C   0  0  0  0  0  0  0  0  0  0  0  0
  -36.9747    4.0049  -43.1704 C   0  0  0  0  0  0  0  0  0  0  0  0
  -36.1305    3.5764  -44.2930 N   0  0  0  0  0  0  0  0  0  0  0  0
  -36.5153    2.2380  -44.7601 C   0  0  0  0  0  0  0  0  0  0  0  0
  -35.8041    1.9335  -46.0533 C   0  0  0  0  0  0  0  0  0  0  0  0
  -34.5666    1.3179  -46.0333 C   0  0  0  0  0  0  0  0  0  0  0  0
  -33.9146    1.0378  -47.2196 C   0  0  0  0  0  0  0  0  0  0  0  0
  -34.5002    1.3733  -48.4260 C   0  0  0  0  0  0  0  0  0  0  0  0
  -35.7372    1.9902  -48.4460 C   0  0  0  0  0  0  0  0  0  0  0  0
  -36.3896    2.2695  -47.2598 C   0  0  0  0  0  0  0  0  0  0  0  0
  -34.7073    3.6195  -43.9337 C   0  0  0  0  0  0  0  0  0  0  0  0
  -34.3093    5.0572  -43.5922 C   0  0  0  0  0  0  0  0  0  0  0  0
  -35.9309    7.6253  -41.0068 X   0  0  0  0  0  0  0  0  0  0  0  0
  1  2  1  0  0  0  0
  2  3  1  0  0  0  0
  2 16  1  0  0  0  0
  3  4  1  0  0  0  0
  3 15  1  0  0  0  0
  4  5  1  0  0  0  0
  5  6  1  0  0  0  0
  6  7  1  0  0  0  0
  6 14  1  0  0  0  0
  7  8  1  0  0  0  0
  8  9  2  0  0  0  0
  8 13  1  0  0  0  0
  9 10  1  0  0  0  0
 10 11  2  0  0  0  0
 11 12  1  0  0  0  0
 12 13  2  0  0  0  0
 14 15  1  0  0  0  0
M  END
> <Index>
5644

> <PropertyFieldDistance>
nan

$$$$
10719352
BBcorina  12272117083D 1   1.00000     0.00000 
CORINA 4.3.0 0026  30.10.2019
  7  7  0  0  0  0  0  0  0  0999 V2000
  -34.9097    3.5432  -41.4088 F   0  0  0  0  0  0  0  0  0  0  0  0
  -34.9963    4.4557  -42.4657 C   0  0  0  0  0  0  0  0  0  0  0  0
  -36.4271    5.0338  -42.5595 C   0  0  0  0  0  0  0  0  0  0  0  0
  -37.0854    4.1536  -43.6516 C   0  0  0  0  0  0  0  0  0  0  0  0
  -35.9828    3.9350  -44.6224 N   0  0  0  0  0  0  0  0  0  0  0  0
  -34.7625    3.7407  -43.8095 C   0  0  0  0  0  0  0  0  0  0  0  0
  -36.2908    2.5675  -45.6018 X   0  0  0  0  0  0  0  0  0  0  0  0
  1  2  1  0  0  0  0
  2  3  1  0  0  0  0
  2  6  1  0  0  0  0
  3  4  1  0  0  0  0
  4  5  1  0  0  0  0
  5  6  1  0  0  0  0
  5  7  1  0  0  0  0
M  END
> <Index>
5645

> <PropertyFieldDistance>
nan

$$$$
10719176
BBcorina  12272117083D 1   1.00000     0.00000 
CORINA 4.3.0 0026  30.10.2019
  7  7  0  0  0  0  0  0  0  0999 V2000
  -34.9097    3.5432  -41.4088 F   0  0  0  0  0  0  0  0  0  0  0  0
  -34.9963    4.4557  -42.4657 C   0  0  0  0  0  0  0  0  0  0  0  0
  -36.4271    5.0338  -42.5595 C   0  0  0  0  0  0  0  0  0  0  0  0
  -37.0854    4.1536  -43.6516 C   0  0  0  0  0  0  0  0  0  0  0  0
  -35.9828    3.9350  -44.6224 N   0  0  0  0  0  0  0  0  0  0  0  0
  -34.7625    3.7407  -43.8095 C   0  0  0  0  0  0  0  0  0  0  0  0
  -36.2908    2.5675  -45.6018 X   0  0  0  0  0  0  0  0  0  0  0  0
  1  2  1  0  0  0  0
  2  3  1  0  0  0  0
  2  6  1  0  0  0  0
  3  4  1  0  0  0  0
  4  5  1  0  0  0  0
  5  6  1  0  0  0  0
  5  7  1  0  0  0  0
M  END
> <Index>
5646

> <PropertyFieldDistance>
nan

$$$$
7920228
BBcorina  12272117083D 1   1.00000     0.00000 
CORINA 4.3.0 0026  30.10.2019
 10 10  0  0  0  0  0  0  0  0999 V2000
  -37.3261    4.6652  -43.7522 F   0  0  0  0  0  0  0  0  0  0  0  0
  -37.3071    3.2664  -43.7599 C   0  0  0  0  0  0  0  0  0  0  0  0
  -38.6196    2.7822  -43.7499 F   0  0  0  0  0  0  0  0  0  0  0  0
  -36.5910    2.7730  -45.0187 C   0  0  0  0  0  0  0  0  0  0  0  0
  -35.1556    3.3026  -45.0295 C   0  0  0  0  0  0  0  0  0  0  0  0
  -34.4156    2.7957  -43.7900 C   0  0  0  0  0  0  0  0  0  0  0  0
  -35.1317    3.2891  -42.5312 C   0  0  0  0  0  0  0  0  0  0  0  0
  -36.5671    2.7596  -42.5203 C   0  0  0  0  0  0  0  0  0  0  0  0
  -33.0375    3.3042  -43.8004 N   0  0  0  0  0  0  0  0  0  0  0  0
  -33.0150    5.0140  -43.7914 X   0  0  0  0  0  0  0  0  0  0  0  0
  1  2  1  0  0  0  0
  2  3  1  0  0  0  0
  2  4  1  0  0  0  0
  2  8  1  0  0  0  0
  4  5  1  0  0  0  0
  5  6  1  0  0  0  0
  6  7  1  0  0  0  0
  6  9  1  0  0  0  0
  7  8  1  0  0  0  0
  9 10  1  0  0  0  0
M  END
> <Index>
5648

> <PropertyFieldDistance>
nan

$$$$
4059118
BBcorina  12272117083D 1   1.00000     0.00000 
CORINA 4.3.0 0026  30.10.2019
 16 17  0  0  0  0  0  0  0  0999 V2000
  -36.4288    2.7525  -45.3174 C   0  0  0  0  0  0  0  0  0  0  0  0
  -35.9871    3.3464  -44.0485 N   0  0  0  0  0  0  0  0  0  0  0  0
  -36.9969    4.2741  -43.5217 C   0  0  0  0  0  0  0  0  0  0  0  0
  -36.5836    4.7308  -42.1185 C   0  0  0  0  0  0  0  0  0  0  0  0
  -35.2176    5.2716  -42.1866 N   0  0  0  0  0  0  0  0  0  0  0  0
  -34.1776    4.4560  -42.8321 C   0  0  0  0  0  0  0  0  0  0  0  0
  -34.6844    4.0077  -44.2020 C   0  0  0  0  0  0  0  0  0  0  0  0
  -34.9276    6.4847  -41.6760 C   0  0  0  0  0  0  0  0  0  0  0  0
  -35.8236    7.2191  -41.3073 O   0  0  0  0  0  0  0  0  0  0  0  0
  -33.6443    6.8838  -41.5742 N   0  0  0  0  0  0  0  0  0  0  0  0
  -33.3051    8.3087  -41.4412 C   0  0  0  0  0  0  0  0  0  0  0  0
  -32.3688    8.4762  -40.2397 C   0  0  0  0  0  0  0  0  0  0  0  0
  -31.2183    7.5753  -40.3902 N   0  0  0  0  0  0  0  0  0  0  0  0
  -31.6395    6.1679  -40.3860 C   0  0  0  0  0  0  0  0  0  0  0  0
  -32.5458    5.9058  -41.5935 C   0  0  0  0  0  0  0  0  0  0  0  0
  -30.0479    7.8683  -39.1784 X   0  0  0  0  0  0  0  0  0  0  0  0
  1  2  1  0  0  0  0
  2  3  1  0  0  0  0
  2  7  1  0  0  0  0
  3  4  1  0  0  0  0
  4  5  1  0  0  0  0
  5  6  1  0  0  0  0
  5  8  1  0  0  0  0
  6  7  1  0  0  0  0
  8  9  2  0  0  0  0
  8 10  1  0  0  0  0
 10 11  1  0  0  0  0
 10 15  1  0  0  0  0
 11 12  1  0  0  0  0
 12 13  1  0  0  0  0
 13 14  1  0  0  0  0
 13 16  1  0  0  0  0
 14 15  1  0  0  0  0
M  END
> <Index>
5651

> <PropertyFieldDistance>
nan

$$$$
5344904
BBcorina  12272117083D 1   1.00000     0.00000 
CORINA 4.3.0 0026  30.10.2019
 11 11  0  0  0  0  0  0  0  0999 V2000
  -35.0152    5.6954  -42.4662 N   0  0  0  0  0  0  0  0  0  0  0  0
  -36.3457    5.3047  -41.9469 C   0  0  0  0  0  0  0  0  0  0  0  0
  -37.3862    5.1808  -43.0306 C   0  0  0  0  0  0  0  0  0  0  0  0
  -37.4322    3.7149  -43.5169 C   0  0  0  0  0  0  0  0  0  0  0  0
  -36.3431    3.4142  -44.3452 N   0  0  0  0  0  0  0  0  0  0  0  0
  -36.4962    2.0865  -44.9548 C   0  0  0  0  0  0  0  0  0  0  0  0
  -35.4695    1.9021  -45.9934 C   0  0  0  0  0  0  0  0  0  0  0  0
  -34.6508    1.7551  -46.8218 C   0  0  0  0  0  0  0  0  0  0  0  0
  -35.0229    3.5501  -43.6974 C   0  0  0  0  0  0  0  0  0  0  0  0
  -34.6389    5.0080  -43.7186 C   0  0  0  0  0  0  0  0  0  0  0  0
  -34.8997    7.3927  -42.6401 X   0  0  0  0  0  0  0  0  0  0  0  0
  1  2  1  0  0  0  0
  1 10  1  0  0  0  0
  1 11  1  0  0  0  0
  2  3  1  0  0  0  0
  3  4  1  0  0  0  0
  4  5  1  0  0  0  0
  5  6  1  0  0  0  0
  5  9  1  0  0  0  0
  6  7  1  0  0  0  0
  7  8  3  0  0  0  0
  9 10  1  0  0  0  0
M  END
> <Index>
5658

> <PropertyFieldDistance>
nan

$$$$
3936190
BBcorina  12272117083D 1   1.00000     0.00000 
CORINA 4.3.0 0026  30.10.2019
 12 13  0  0  0  0  0  0  0  0999 V2000
  -33.9810    5.9204  -42.7154 N   0  0  0  0  0  0  0  0  0  0  0  0
  -35.0478    5.3735  -43.5644 C   0  0  0  0  0  0  0  0  0  0  0  0
  -36.3874    5.2938  -42.7801 C   0  0  0  0  0  0  0  0  0  0  0  0
  -37.1145    4.1470  -43.5256 C   0  0  0  0  0  0  0  0  0  0  0  0
  -36.0493    3.1806  -43.8678 N   0  0  0  0  0  0  0  0  0  0  0  0
  -34.7624    3.8986  -43.9171 C   0  0  0  0  0  0  0  0  0  0  0  0
  -36.3315    2.5173  -45.1478 C   0  0  0  0  0  0  0  0  0  0  0  0
  -35.2795    1.4278  -45.4200 C   0  0  0  0  0  0  0  0  0  0  0  0
  -36.0436    0.0907  -45.5117 C   0  0  0  0  0  0  0  0  0  0  0  0
  -37.4862    0.5032  -45.8965 C   0  0  0  0  0  0  0  0  0  0  0  0
  -37.6980    1.8044  -45.0835 C   0  0  0  0  0  0  0  0  0  0  0  0
  -33.7902    7.5996  -42.9765 X   0  0  0  0  0  0  0  0  0  0  0  0
  1  2  1  0  0  0  0
  1 12  1  0  0  0  0
  2  3  1  0  0  0  0
  2  6  1  0  0  0  0
  3  4  1  0  0  0  0
  4  5  1  0  0  0  0
  5  6  1  0  0  0  0
  5  7  1  0  0  0  0
  7  8  1  0  0  0  0
  7 11  1  0  0  0  0
  8  9  1  0  0  0  0
  9 10  1  0  0  0  0
 10 11  1  0  0  0  0
M  END
> <Index>
5663

> <PropertyFieldDistance>
nan

$$$$
3377910
BBcorina  12272117083D 1   1.00000     0.00000 
CORINA 4.3.0 0026  30.10.2019
 13 13  0  0  0  0  0  0  0  0999 V2000
  -34.2197   -0.7328  -45.1173 C   0  0  0  0  0  0  0  0  0  0  0  0
  -35.5089    0.0690  -45.3077 C   0  0  0  0  0  0  0  0  0  0  0  0
  -35.9858   -0.0683  -46.7550 C   0  0  0  0  0  0  0  0  0  0  0  0
  -35.2547    1.4805  -45.0091 N   0  0  0  0  0  0  0  0  0  0  0  0
  -36.2667    2.2788  -44.6153 C   0  0  0  0  0  0  0  0  0  0  0  0
  -37.4053    1.8526  -44.5965 O   0  0  0  0  0  0  0  0  0  0  0  0
  -36.0166    3.5495  -44.2423 N   0  0  0  0  0  0  0  0  0  0  0  0
  -37.0874    4.4037  -43.7065 C   0  0  0  0  0  0  0  0  0  0  0  0
  -36.6071    5.0157  -42.3863 C   0  0  0  0  0  0  0  0  0  0  0  0
  -35.3220    5.6934  -42.6033 N   0  0  0  0  0  0  0  0  0  0  0  0
  -34.2808    4.7422  -43.0145 C   0  0  0  0  0  0  0  0  0  0  0  0
  -34.6644    4.1171  -44.3547 C   0  0  0  0  0  0  0  0  0  0  0  0
  -34.8436    6.5609  -41.2094 X   0  0  0  0  0  0  0  0  0  0  0  0
  1  2  1  0  0  0  0
  2  3  1  0  0  0  0
  2  4  1  0  0  0  0
  4  5  1  0  0  0  0
  5  6  2  0  0  0  0
  5  7  1  0  0  0  0
  7  8  1  0  0  0  0
  7 12  1  0  0  0  0
  8  9  1  0  0  0  0
  9 10  1  0  0  0  0
 10 11  1  0  0  0  0
 10 13  1  0  0  0  0
 11 12  1  0  0  0  0
M  END
> <Index>
5664

> <PropertyFieldDistance>
nan

$$$$
7533660
BBcorina  12272117083D 1   1.00000     0.00000 
CORINA 4.3.0 0026  30.10.2019
 10 10  0  0  0  0  0  0  0  0999 V2000
  -30.6278    5.4193  -43.9757 O   0  0  0  0  0  0  0  0  0  0  0  0
  -31.8353    4.6970  -43.7261 C   0  0  0  0  0  0  0  0  0  0  0  0
  -32.9630    5.6821  -43.4116 C   0  0  0  0  0  0  0  0  0  0  0  0
  -34.2559    4.9087  -43.1443 C   0  0  0  0  0  0  0  0  0  0  0  0
  -35.3534    5.8831  -42.7079 C   0  0  0  0  0  0  0  0  0  0  0  0
  -36.6587    5.1099  -42.5007 C   0  0  0  0  0  0  0  0  0  0  0  0
  -37.0290    4.3869  -43.7978 C   0  0  0  0  0  0  0  0  0  0  0  0
  -35.9479    3.4664  -44.1723 N   0  0  0  0  0  0  0  0  0  0  0  0
  -34.6958    4.1917  -44.4226 C   0  0  0  0  0  0  0  0  0  0  0  0
  -36.3899    2.5211  -45.5269 X   0  0  0  0  0  0  0  0  0  0  0  0
  1  2  1  0  0  0  0
  2  3  1  0  0  0  0
  3  4  1  0  0  0  0
  4  5  1  0  0  0  0
  4  9  1  0  0  0  0
  5  6  1  0  0  0  0
  6  7  1  0  0  0  0
  7  8  1  0  0  0  0
  8  9  1  0  0  0  0
  8 10  1  0  0  0  0
M  END
> <Index>
5675

> <PropertyFieldDistance>
nan

$$$$
3705654
BBcorina  12272117083D 1   1.00000     0.00000 
CORINA 4.3.0 0026  30.10.2019
 14 15  0  0  0  0  0  0  0  0999 V2000
  -35.8404   -0.3252  -44.2661 C   0  0  0  0  0  0  0  0  0  0  0  0
  -35.2276    0.4630  -45.3383 N   0  0  0  0  0  0  0  0  0  0  0  0
  -34.1957    0.0700  -46.1473 C   0  0  0  0  0  0  0  0  0  0  0  0
  -33.9450    1.0946  -46.9844 C   0  0  0  0  0  0  0  0  0  0  0  0
  -34.8062    2.0829  -46.7002 N   0  0  0  0  0  0  0  0  0  0  0  0
  -35.5754    1.7129  -45.7131 C   0  0  0  0  0  0  0  0  0  0  0  0
  -36.6706    2.5427  -45.0944 C   0  0  0  0  0  0  0  0  0  0  0  0
  -36.1183    3.3364  -43.9885 N   0  0  0  0  0  0  0  0  0  0  0  0
  -37.0926    4.3292  -43.5148 C   0  0  0  0  0  0  0  0  0  0  0  0
  -36.5103    5.0791  -42.3144 C   0  0  0  0  0  0  0  0  0  0  0  0
  -35.2517    5.7273  -42.7086 N   0  0  0  0  0  0  0  0  0  0  0  0
  -34.2773    4.7344  -43.1823 C   0  0  0  0  0  0  0  0  0  0  0  0
  -34.8596    3.9845  -44.3828 C   0  0  0  0  0  0  0  0  0  0  0  0
  -34.6087    6.6511  -41.4212 X   0  0  0  0  0  0  0  0  0  0  0  0
  1  2  1  0  0  0  0
  2  3  1  0  0  0  0
  2  6  1  0  0  0  0
  3  4  2  0  0  0  0
  4  5  1  0  0  0  0
  5  6  2  0  0  0  0
  6  7  1  0  0  0  0
  7  8  1  0  0  0  0
  8  9  1  0  0  0  0
  8 13  1  0  0  0  0
  9 10  1  0  0  0  0
 10 11  1  0  0  0  0
 11 12  1  0  0  0  0
 11 14  1  0  0  0  0
 12 13  1  0  0  0  0
M  END
> <Index>
5679

> <PropertyFieldDistance>
nan

$$$$
3490462
BBcorina  12272117083D 1   1.00000     0.00000 
CORINA 4.3.0 0026  30.10.2019
  8  8  0  0  0  0  0  0  0  0999 V2000
  -35.5386    1.1586  -43.8508 C   0  0  0  0  0  0  0  0  0  0  0  0
  -35.0884    2.4889  -43.2438 C   0  0  0  0  0  0  0  0  0  0  0  0
  -36.1876    3.0450  -42.3151 C   0  0  0  0  0  0  0  0  0  0  0  0
  -36.1388    4.5762  -42.5432 C   0  0  0  0  0  0  0  0  0  0  0  0
  -35.8640    4.6867  -44.0635 C   0  0  0  0  0  0  0  0  0  0  0  0
  -34.8827    3.5328  -44.3554 C   0  0  0  0  0  0  0  0  0  0  0  0
  -35.1793    2.9379  -45.6654 N   0  0  0  0  0  0  0  0  0  0  0  0
  -34.5738    3.9134  -46.9327 X   0  0  0  0  0  0  0  0  0  0  0  0
  1  2  1  0  0  0  0
  2  3  1  0  0  0  0
  2  6  1  0  0  0  0
  3  4  1  0  0  0  0
  4  5  1  0  0  0  0
  5  6  1  0  0  0  0
  6  7  1  0  0  0  0
  7  8  1  0  0  0  0
M  END
> <Index>
5702

> <PropertyFieldDistance>
nan

$$$$
3403034
BBcorina  12272117083D 1   1.00000     0.00000 
CORINA 4.3.0 0026  30.10.2019
  9  9  0  0  0  0  0  0  0  0999 V2000
  -32.8215    4.2968  -41.4990 N   0  0  0  0  0  0  0  0  0  0  0  0
  -34.0567    4.8239  -41.6116 C   0  0  0  0  0  0  0  0  0  0  0  0
  -34.3033    5.9025  -41.1149 O   0  0  0  0  0  0  0  0  0  0  0  0
  -35.1316    4.0731  -42.3544 C   0  0  0  0  0  0  0  0  0  0  0  0
  -36.4196    4.9319  -42.4898 C   0  0  0  0  0  0  0  0  0  0  0  0
  -37.0796    4.3646  -43.7642 C   0  0  0  0  0  0  0  0  0  0  0  0
  -36.0217    3.7054  -44.5516 N   0  0  0  0  0  0  0  0  0  0  0  0
  -34.7367    3.8612  -43.8373 C   0  0  0  0  0  0  0  0  0  0  0  0
  -35.9306    4.3633  -46.1274 X   0  0  0  0  0  0  0  0  0  0  0  0
  1  2  1  0  0  0  0
  2  3  2  0  0  0  0
  2  4  1  0  0  0  0
  4  5  1  0  0  0  0
  4  8  1  0  0  0  0
  5  6  1  0  0  0  0
  6  7  1  0  0  0  0
  7  8  1  0  0  0  0
  7  9  1  0  0  0  0
M  END
> <Index>
5704

> <PropertyFieldDistance>
nan

$$$$
3706220
BBcorina  12272117083D 1   1.00000     0.00000 
CORINA 4.3.0 0026  30.10.2019
 11 11  0  0  0  0  0  0  0  0999 V2000
  -34.8281    6.9540  -42.1298 N   0  0  0  0  0  0  0  0  0  0  0  0
  -35.1650    5.5549  -42.4241 C   0  0  0  0  0  0  0  0  0  0  0  0
  -36.6444    5.4542  -42.8061 C   0  0  0  0  0  0  0  0  0  0  0  0
  -36.9747    4.0050  -43.1705 C   0  0  0  0  0  0  0  0  0  0  0  0
  -36.1304    3.5765  -44.2930 N   0  0  0  0  0  0  0  0  0  0  0  0
  -36.5153    2.2379  -44.7601 C   0  0  0  0  0  0  0  0  0  0  0  0
  -35.8041    1.9335  -46.0534 C   0  0  0  0  0  0  0  0  0  0  0  0
  -35.0769    0.8493  -46.1615 C   0  0  0  0  0  0  0  0  0  0  0  0
  -34.7073    3.6195  -43.9337 C   0  0  0  0  0  0  0  0  0  0  0  0
  -34.3093    5.0572  -43.5922 C   0  0  0  0  0  0  0  0  0  0  0  0
  -35.2135    7.9683  -43.4514 X   0  0  0  0  0  0  0  0  0  0  0  0
  1  2  1  0  0  0  0
  1 11  1  0  0  0  0
  2  3  1  0  0  0  0
  2 10  1  0  0  0  0
  3  4  1  0  0  0  0
  4  5  1  0  0  0  0
  5  6  1  0  0  0  0
  5  9  1  0  0  0  0
  6  7  1  0  0  0  0
  7  8  2  0  0  0  0
  9 10  1  0  0  0  0
M  END
> <Index>
5705

> <PropertyFieldDistance>
nan

$$$$
4117776
BBcorina  12272117083D 1   1.00000     0.00000 
CORINA 4.3.0 0026  30.10.2019
 13 13  0  0  0  0  0  0  0  0999 V2000
  -35.1597   -0.2154  -45.0898 C   0  0  0  0  0  0  0  0  0  0  0  0
  -35.1101    0.8291  -46.1750 C   0  0  0  0  0  0  0  0  0  0  0  0
  -35.8041    1.9335  -46.0534 C   0  0  0  0  0  0  0  0  0  0  0  0
  -36.5153    2.2380  -44.7601 C   0  0  0  0  0  0  0  0  0  0  0  0
  -36.1305    3.5765  -44.2929 N   0  0  0  0  0  0  0  0  0  0  0  0
  -36.9747    4.0050  -43.1705 C   0  0  0  0  0  0  0  0  0  0  0  0
  -36.6444    5.4542  -42.8062 C   0  0  0  0  0  0  0  0  0  0  0  0
  -35.1650    5.5548  -42.4240 C   0  0  0  0  0  0  0  0  0  0  0  0
  -34.3092    5.0572  -43.5922 C   0  0  0  0  0  0  0  0  0  0  0  0
  -34.7073    3.6195  -43.9337 C   0  0  0  0  0  0  0  0  0  0  0  0
  -34.8281    6.9540  -42.1297 N   0  0  0  0  0  0  0  0  0  0  0  0
  -34.2621    0.6031  -47.4001 C   0  0  0  0  0  0  0  0  0  0  0  0
  -35.2135    7.9682  -43.4514 X   0  0  0  0  0  0  0  0  0  0  0  0
  1  2  1  0  0  0  0
  2  3  2  0  0  0  0
  2 12  1  0  0  0  0
  3  4  1  0  0  0  0
  4  5  1  0  0  0  0
  5  6  1  0  0  0  0
  5 10  1  0  0  0  0
  6  7  1  0  0  0  0
  7  8  1  0  0  0  0
  8  9  1  0  0  0  0
  8 11  1  0  0  0  0
  9 10  1  0  0  0  0
 11 13  1  0  0  0  0
M  END
> <Index>
5706

> <PropertyFieldDistance>
nan

$$$$
3706236
BBcorina  12272117083D 1   1.00000     0.00000 
CORINA 4.3.0 0026  30.10.2019
 12 12  0  0  0  0  0  0  0  0999 V2000
  -36.3878    2.4000  -47.3621 C   0  0  0  0  0  0  0  0  0  0  0  0
  -35.8040    1.9335  -46.0534 C   0  0  0  0  0  0  0  0  0  0  0  0
  -34.6786    1.2634  -46.0399 C   0  0  0  0  0  0  0  0  0  0  0  0
  -36.5153    2.2379  -44.7601 C   0  0  0  0  0  0  0  0  0  0  0  0
  -36.1305    3.5765  -44.2930 N   0  0  0  0  0  0  0  0  0  0  0  0
  -36.9747    4.0050  -43.1704 C   0  0  0  0  0  0  0  0  0  0  0  0
  -36.6444    5.4542  -42.8062 C   0  0  0  0  0  0  0  0  0  0  0  0
  -35.1651    5.5548  -42.4240 C   0  0  0  0  0  0  0  0  0  0  0  0
  -34.3093    5.0572  -43.5923 C   0  0  0  0  0  0  0  0  0  0  0  0
  -34.7073    3.6195  -43.9337 C   0  0  0  0  0  0  0  0  0  0  0  0
  -34.8280    6.9540  -42.1297 N   0  0  0  0  0  0  0  0  0  0  0  0
  -35.2135    7.9682  -43.4514 X   0  0  0  0  0  0  0  0  0  0  0  0
  1  2  1  0  0  0  0
  2  3  2  0  0  0  0
  2  4  1  0  0  0  0
  4  5  1  0  0  0  0
  5  6  1  0  0  0  0
  5 10  1  0  0  0  0
  6  7  1  0  0  0  0
  7  8  1  0  0  0  0
  8  9  1  0  0  0  0
  8 11  1  0  0  0  0
  9 10  1  0  0  0  0
 11 12  1  0  0  0  0
M  END
> <Index>
5707

> <PropertyFieldDistance>
nan

$$$$
4146656
BBcorina  12272117083D 1   1.00000     0.00000 
CORINA 4.3.0 0026  30.10.2019
 11 11  0  0  0  0  0  0  0  0999 V2000
  -38.1965    2.5036  -47.6990 C   0  0  0  0  0  0  0  0  0  0  0  0
  -37.0343    2.7317  -46.8995 O   0  0  0  0  0  0  0  0  0  0  0  0
  -36.9667    1.9179  -45.7267 C   0  0  0  0  0  0  0  0  0  0  0  0
  -35.6887    2.2452  -44.9519 C   0  0  0  0  0  0  0  0  0  0  0  0
  -35.7540    3.6284  -44.4616 N   0  0  0  0  0  0  0  0  0  0  0  0
  -37.0109    3.8669  -43.7070 C   0  0  0  0  0  0  0  0  0  0  0  0
  -36.6808    5.1182  -42.8549 C   0  0  0  0  0  0  0  0  0  0  0  0
  -35.2040    4.8877  -42.4599 C   0  0  0  0  0  0  0  0  0  0  0  0
  -34.6546    3.9067  -43.5122 C   0  0  0  0  0  0  0  0  0  0  0  0
  -34.4604    6.1538  -42.5057 N   0  0  0  0  0  0  0  0  0  0  0  0
  -34.5945    6.8879  -44.0442 X   0  0  0  0  0  0  0  0  0  0  0  0
  1  2  1  0  0  0  0
  2  3  1  0  0  0  0
  3  4  1  0  0  0  0
  4  5  1  0  0  0  0
  5  6  1  0  0  0  0
  5  9  1  0  0  0  0
  6  7  1  0  0  0  0
  7  8  1  0  0  0  0
  8  9  1  0  0  0  0
  8 10  1  0  0  0  0
 10 11  1  0  0  0  0
M  END
> <Index>
5718

> <PropertyFieldDistance>
nan

$$$$
3936650
BBcorina  12272117083D 1   1.00000     0.00000 
CORINA 4.3.0 0026  30.10.2019
 14 15  0  0  0  0  0  0  0  0999 V2000
  -35.5923    1.7940  -45.8744 C   0  0  0  0  0  0  0  0  0  0  0  0
  -36.6878    2.6432  -45.2267 C   0  0  0  0  0  0  0  0  0  0  0  0
  -36.1546    3.2953  -44.0231 N   0  0  0  0  0  0  0  0  0  0  0  0
  -37.0956    4.2995  -43.5075 C   0  0  0  0  0  0  0  0  0  0  0  0
  -36.5404    4.8975  -42.2126 C   0  0  0  0  0  0  0  0  0  0  0  0
  -35.2259    5.4988  -42.4779 N   0  0  0  0  0  0  0  0  0  0  0  0
  -34.2850    4.4945  -42.9935 C   0  0  0  0  0  0  0  0  0  0  0  0
  -34.8402    3.8965  -44.2884 C   0  0  0  0  0  0  0  0  0  0  0  0
  -34.6927    6.1508  -41.2744 C   0  0  0  0  0  0  0  0  0  0  0  0
  -35.5392    7.3956  -40.8996 C   0  0  0  0  0  0  0  0  0  0  0  0
  -34.5060    8.2568  -40.1313 C   0  0  0  0  0  0  0  0  0  0  0  0
  -33.2299    8.0430  -40.8465 N   0  0  0  0  0  0  0  0  0  0  0  0
  -33.2975    6.7496  -41.5510 C   0  0  0  0  0  0  0  0  0  0  0  0
  -31.9067    8.0828  -39.7640 X   0  0  0  0  0  0  0  0  0  0  0  0
  1  2  1  0  0  0  0
  2  3  1  0  0  0  0
  3  4  1  0  0  0  0
  3  8  1  0  0  0  0
  4  5  1  0  0  0  0
  5  6  1  0  0  0  0
  6  7  1  0  0  0  0
  6  9  1  0  0  0  0
  7  8  1  0  0  0  0
  9 10  1  0  0  0  0
  9 13  1  0  0  0  0
 10 11  1  0  0  0  0
 11 12  1  0  0  0  0
 12 13  1  0  0  0  0
 12 14  1  0  0  0  0
M  END
> <Index>
5728

> <PropertyFieldDistance>
nan

$$$$
4146694
BBcorina  12272117083D 1   1.00000     0.00000 
CORINA 4.3.0 0026  30.10.2019
 13 14  0  0  0  0  0  0  0  0999 V2000
  -37.8363    0.4070  -45.2472 N   0  0  0  0  0  0  0  0  0  0  0  0
  -36.7080   -0.4921  -45.5209 C   0  0  0  0  0  0  0  0  0  0  0  0
  -35.5604    0.3031  -46.1475 C   0  0  0  0  0  0  0  0  0  0  0  0
  -35.1305    1.4138  -45.1852 C   0  0  0  0  0  0  0  0  0  0  0  0
  -36.3354    2.3075  -44.8786 C   0  0  0  0  0  0  0  0  0  0  0  0
  -37.4604    1.4541  -44.2887 C   0  0  0  0  0  0  0  0  0  0  0  0
  -35.9453    3.3417  -43.9110 N   0  0  0  0  0  0  0  0  0  0  0  0
  -37.0433    4.2898  -43.6827 C   0  0  0  0  0  0  0  0  0  0  0  0
  -36.6554    5.2624  -42.5667 C   0  0  0  0  0  0  0  0  0  0  0  0
  -35.3834    6.0133  -42.9701 C   0  0  0  0  0  0  0  0  0  0  0  0
  -34.2691    5.0007  -43.2489 C   0  0  0  0  0  0  0  0  0  0  0  0
  -34.7262    4.0356  -44.3451 C   0  0  0  0  0  0  0  0  0  0  0  0
  -39.1978   -0.4684  -44.6959 X   0  0  0  0  0  0  0  0  0  0  0  0
  1  2  1  0  0  0  0
  1  6  1  0  0  0  0
  1 13  1  0  0  0  0
  2  3  1  0  0  0  0
  3  4  1  0  0  0  0
  4  5  1  0  0  0  0
  5  6  1  0  0  0  0
  5  7  1  0  0  0  0
  7  8  1  0  0  0  0
  7 12  1  0  0  0  0
  8  9  1  0  0  0  0
  9 10  1  0  0  0  0
 10 11  1  0  0  0  0
 11 12  1  0  0  0  0
M  END
> <Index>
5730

> <PropertyFieldDistance>
nan

$$$$
3489062
BBcorina  12272117083D 1   1.00000     0.00000 
CORINA 4.3.0 0026  30.10.2019
  8  8  0  0  0  0  0  0  0  0999 V2000
  -35.9393    3.4727  -44.1479 N   0  0  0  0  0  0  0  0  0  0  0  0
  -37.0338    4.3889  -43.8035 C   0  0  0  0  0  0  0  0  0  0  0  0
  -36.7061    5.1010  -42.4861 C   0  0  0  0  0  0  0  0  0  0  0  0
  -35.3437    5.7479  -42.6231 C   0  0  0  0  0  0  0  0  0  0  0  0
  -35.1523    7.0000  -42.2885 C   0  0  0  0  0  0  0  0  0  0  0  0
  -34.2116    4.9010  -43.1655 C   0  0  0  0  0  0  0  0  0  0  0  0
  -34.6965    4.2000  -44.4346 C   0  0  0  0  0  0  0  0  0  0  0  0
  -36.3745    2.4630  -45.4577 X   0  0  0  0  0  0  0  0  0  0  0  0
  1  2  1  0  0  0  0
  1  7  1  0  0  0  0
  1  8  1  0  0  0  0
  2  3  1  0  0  0  0
  3  4  1  0  0  0  0
  4  5  2  0  0  0  0
  4  6  1  0  0  0  0
  6  7  1  0  0  0  0
M  END
> <Index>
5731

> <PropertyFieldDistance>
nan

$$$$
3489064
BBcorina  12272117083D 1   1.00000     0.00000 
CORINA 4.3.0 0026  30.10.2019
 15 15  0  0  0  0  0  0  0  0999 V2000
  -35.0120    5.6975  -42.4673 N   0  0  0  0  0  0  0  0  0  0  0  0
  -36.3414    5.3092  -41.9434 C   0  0  0  0  0  0  0  0  0  0  0  0
  -37.3853    5.1850  -43.0238 C   0  0  0  0  0  0  0  0  0  0  0  0
  -37.4347    3.7184  -43.5076 C   0  0  0  0  0  0  0  0  0  0  0  0
  -36.3486    3.4150  -44.3387 N   0  0  0  0  0  0  0  0  0  0  0  0
  -36.5053    2.0866  -44.9458 C   0  0  0  0  0  0  0  0  0  0  0  0
  -35.4577    1.8948  -46.0120 C   0  0  0  0  0  0  0  0  0  0  0  0
  -34.6592    2.7779  -46.2434 O   0  0  0  0  0  0  0  0  0  0  0  0
  -35.4081    0.7421  -46.7086 N   0  0  0  0  0  0  0  0  0  0  0  0
  -34.3897    0.5557  -47.7451 C   0  0  0  0  0  0  0  0  0  0  0  0
  -34.5467   -0.7755  -48.3534 C   0  0  0  0  0  0  0  0  0  0  0  0
  -34.6719   -1.8372  -48.8386 C   0  0  0  0  0  0  0  0  0  0  0  0
  -35.0262    3.5502  -43.6952 C   0  0  0  0  0  0  0  0  0  0  0  0
  -34.6404    5.0077  -43.7198 C   0  0  0  0  0  0  0  0  0  0  0  0
  -34.8948    7.3943  -42.6442 X   0  0  0  0  0  0  0  0  0  0  0  0
  1  2  1  0  0  0  0
  1 14  1  0  0  0  0
  1 15  1  0  0  0  0
  2  3  1  0  0  0  0
  3  4  1  0  0  0  0
  4  5  1  0  0  0  0
  5  6  1  0  0  0  0
  5 13  1  0  0  0  0
  6  7  1  0  0  0  0
  7  8  2  0  0  0  0
  7  9  1  0  0  0  0
  9 10  1  0  0  0  0
 10 11  1  0  0  0  0
 11 12  3  0  0  0  0
 13 14  1  0  0  0  0
M  END
> <Index>
5732

> <PropertyFieldDistance>
nan

$$$$
4994534
BBcorina  12272117083D 1   1.00000     0.00000 
CORINA 4.3.0 0026  30.10.2019
 16 17  0  0  0  0  0  0  0  0999 V2000
  -35.7292    1.9015  -46.0194 C   0  0  0  0  0  0  0  0  0  0  0  0
  -36.5639    2.2720  -44.7917 C   0  0  0  0  0  0  0  0  0  0  0  0
  -36.1555    3.5959  -44.3034 N   0  0  0  0  0  0  0  0  0  0  0  0
  -36.9788    4.0122  -43.1608 C   0  0  0  0  0  0  0  0  0  0  0  0
  -36.6249    5.4496  -42.7723 C   0  0  0  0  0  0  0  0  0  0  0  0
  -35.1393    5.5237  -42.4087 C   0  0  0  0  0  0  0  0  0  0  0  0
  -34.3059    5.0390  -43.5983 C   0  0  0  0  0  0  0  0  0  0  0  0
  -34.7272    3.6136  -43.9631 C   0  0  0  0  0  0  0  0  0  0  0  0
  -34.7803    6.9123  -42.0911 N   0  0  0  0  0  0  0  0  0  0  0  0
  -38.0231    2.3031  -45.1671 C   0  0  0  0  0  0  0  0  0  0  0  0
  -38.8656    1.2894  -44.7510 C   0  0  0  0  0  0  0  0  0  0  0  0
  -40.2041    1.3180  -45.0954 C   0  0  0  0  0  0  0  0  0  0  0  0
  -40.7000    2.3607  -45.8556 C   0  0  0  0  0  0  0  0  0  0  0  0
  -39.8578    3.3751  -46.2706 C   0  0  0  0  0  0  0  0  0  0  0  0
  -38.5201    3.3485  -45.9229 C   0  0  0  0  0  0  0  0  0  0  0  0
  -35.1705    7.9578  -43.3869 X   0  0  0  0  0  0  0  0  0  0  0  0
  1  2  1  0  0  0  0
  2  3  1  0  0  0  0
  2 10  1  0  0  0  0
  3  4  1  0  0  0  0
  3  8  1  0  0  0  0
  4  5  1  0  0  0  0
  5  6  1  0  0  0  0
  6  7  1  0  0  0  0
  6  9  1  0  0  0  0
  7  8  1  0  0  0  0
  9 16  1  0  0  0  0
 10 11  2  0  0  0  0
 10 15  1  0  0  0  0
 11 12  1  0  0  0  0
 12 13  2  0  0  0  0
 13 14  1  0  0  0  0
 14 15  2  0  0  0  0
M  END
> <Index>
5748

> <PropertyFieldDistance>
nan

$$$$
3706688
BBcorina  12272117083D 1   1.00000     0.00000 
CORINA 4.3.0 0026  30.10.2019
  9  9  0  0  0  0  0  0  0  0999 V2000
  -36.0215    3.9203  -44.5930 N   0  0  0  0  0  0  0  0  0  0  0  0
  -36.9724    4.0212  -43.4763 C   0  0  0  0  0  0  0  0  0  0  0  0
  -36.6293    5.2502  -42.6304 C   0  0  0  0  0  0  0  0  0  0  0  0
  -35.2754    5.1511  -42.1803 O   0  0  0  0  0  0  0  0  0  0  0  0
  -34.3222    5.0515  -43.2429 C   0  0  0  0  0  0  0  0  0  0  0  0
  -34.6419    3.8204  -44.0951 C   0  0  0  0  0  0  0  0  0  0  0  0
  -32.9690    4.9206  -42.6784 C   0  0  0  0  0  0  0  0  0  0  0  0
  -31.9248    4.8195  -42.2426 N   0  0  0  0  0  0  0  0  0  0  0  0
  -36.4046    2.5974  -45.6065 X   0  0  0  0  0  0  0  0  0  0  0  0
  1  2  1  0  0  0  0
  1  6  1  0  0  0  0
  1  9  1  0  0  0  0
  2  3  1  0  0  0  0
  3  4  1  0  0  0  0
  4  5  1  0  0  0  0
  5  6  1  0  0  0  0
  5  7  1  0  0  0  0
  7  8  3  0  0  0  0
M  END
> <Index>
5765

> <PropertyFieldDistance>
nan

$$$$
3563026
BBcorina  12272117083D 1   1.00000     0.00000 
CORINA 4.3.0 0026  30.10.2019
  9  9  0  0  0  0  0  0  0  0999 V2000
  -33.8986    7.4095  -42.8839 C   0  0  0  0  0  0  0  0  0  0  0  0
  -34.8643    6.2994  -43.3040 C   0  0  0  0  0  0  0  0  0  0  0  0
  -36.0765    6.3069  -42.3515 C   0  0  0  0  0  0  0  0  0  0  0  0
  -36.8671    4.9884  -42.4144 C   0  0  0  0  0  0  0  0  0  0  0  0
  -36.9973    4.4862  -43.8305 C   0  0  0  0  0  0  0  0  0  0  0  0
  -35.9110    3.5168  -44.0748 N   0  0  0  0  0  0  0  0  0  0  0  0
  -34.6838    4.0882  -44.4232 C   0  0  0  0  0  0  0  0  0  0  0  0
  -34.1280    4.9840  -43.2947 C   0  0  0  0  0  0  0  0  0  0  0  0
  -36.3863    2.3397  -45.2204 X   0  0  0  0  0  0  0  0  0  0  0  0
  1  2  1  0  0  0  0
  2  3  1  0  0  0  0
  2  8  1  0  0  0  0
  3  4  1  0  0  0  0
  4  5  1  0  0  0  0
  5  6  1  0  0  0  0
  6  7  1  0  0  0  0
  6  9  1  0  0  0  0
  7  8  1  0  0  0  0
M  END
> <Index>
5783

> <PropertyFieldDistance>
nan

$$$$
3705424
BBcorina  12272117083D 1   1.00000     0.00000 
CORINA 4.3.0 0026  30.10.2019
 12 12  0  0  0  0  0  0  0  0999 V2000
  -36.6493    0.9536  -48.2586 N   0  0  0  0  0  0  0  0  0  0  0  0
  -36.5110    0.7892  -46.8054 C   0  0  0  0  0  0  0  0  0  0  0  0
  -36.3183    2.1598  -46.1532 C   0  0  0  0  0  0  0  0  0  0  0  0
  -36.1742    1.9886  -44.6397 C   0  0  0  0  0  0  0  0  0  0  0  0
  -35.9897    3.3009  -44.0151 N   0  0  0  0  0  0  0  0  0  0  0  0
  -37.0136    4.0507  -43.5888 C   0  0  0  0  0  0  0  0  0  0  0  0
  -38.1849    3.7477  -43.6639 O   0  0  0  0  0  0  0  0  0  0  0  0
  -36.4771    5.3366  -42.9987 C   0  0  0  0  0  0  0  0  0  0  0  0
  -34.9494    5.1986  -43.1598 C   0  0  0  0  0  0  0  0  0  0  0  0
  -34.7831    3.8466  -43.8187 C   0  0  0  0  0  0  0  0  0  0  0  0
  -33.7250    3.3392  -44.1231 O   0  0  0  0  0  0  0  0  0  0  0  0
  -36.8671   -0.5577  -49.0283 X   0  0  0  0  0  0  0  0  0  0  0  0
  1  2  1  0  0  0  0
  1 12  1  0  0  0  0
  2  3  1  0  0  0  0
  3  4  1  0  0  0  0
  4  5  1  0  0  0  0
  5  6  1  0  0  0  0
  5 10  1  0  0  0  0
  6  7  2  0  0  0  0
  6  8  1  0  0  0  0
  8  9  1  0  0  0  0
  9 10  1  0  0  0  0
 10 11  2  0  0  0  0
M  END
> <Index>
5784

> <PropertyFieldDistance>
nan

$$$$
15092042
BBcorina  12272117083D 1   1.00000     0.00000 
CORINA 4.3.0 0026  30.10.2019
 13 14  0  0  0  0  0  0  0  0999 V2000
  -36.0053    3.6167  -44.3796 N   0  0  0  0  0  0  0  0  0  0  0  0
  -37.0063    4.4928  -43.7549 C   0  0  0  0  0  0  0  0  0  0  0  0
  -36.5675    4.8275  -42.3274 C   0  0  0  0  0  0  0  0  0  0  0  0
  -35.2506    5.4785  -42.3623 N   0  0  0  0  0  0  0  0  0  0  0  0
  -34.2496    4.6024  -42.9870 C   0  0  0  0  0  0  0  0  0  0  0  0
  -34.6884    4.2678  -44.4147 C   0  0  0  0  0  0  0  0  0  0  0  0
  -34.8484    5.8641  -41.0813 C   0  0  0  0  0  0  0  0  0  0  0  0
  -33.6257    6.5016  -40.8861 C   0  0  0  0  0  0  0  0  0  0  0  0
  -33.2713    6.8651  -39.5972 C   0  0  0  0  0  0  0  0  0  0  0  0
  -34.1355    6.5858  -38.5551 C   0  0  0  0  0  0  0  0  0  0  0  0
  -35.2867    5.9803  -38.7728 N   0  0  0  0  0  0  0  0  0  0  0  0
  -35.6626    5.6175  -39.9828 C   0  0  0  0  0  0  0  0  0  0  0  0
  -36.4975    3.1447  -45.9478 X   0  0  0  0  0  0  0  0  0  0  0  0
  1  2  1  0  0  0  0
  1  6  1  0  0  0  0
  1 13  1  0  0  0  0
  2  3  1  0  0  0  0
  3  4  1  0  0  0  0
  4  5  1  0  0  0  0
  4  7  1  0  0  0  0
  5  6  1  0  0  0  0
  7  8  2  0  0  0  0
  7 12  1  0  0  0  0
  8  9  1  0  0  0  0
  9 10  2  0  0  0  0
 10 11  1  0  0  0  0
 11 12  2  0  0  0  0
M  END
> <Index>
5801

> <PropertyFieldDistance>
nan

$$$$
4278310
BBcorina  12272117083D 1   1.00000     0.00000 
CORINA 4.3.0 0026  30.10.2019
 16 17  0  0  0  0  0  0  0  0999 V2000
  -34.9590    6.9249  -41.8252 C   0  0  0  0  0  0  0  0  0  0  0  0
  -35.3852    6.0001  -42.9673 C   0  0  0  0  0  0  0  0  0  0  0  0
  -36.6584    5.2486  -42.5691 C   0  0  0  0  0  0  0  0  0  0  0  0
  -37.0463    4.2821  -43.6906 C   0  0  0  0  0  0  0  0  0  0  0  0
  -35.9492    3.3341  -43.9228 N   0  0  0  0  0  0  0  0  0  0  0  0
  -34.7288    4.0290  -44.3521 C   0  0  0  0  0  0  0  0  0  0  0  0
  -34.2718    4.9878  -43.2503 C   0  0  0  0  0  0  0  0  0  0  0  0
  -36.3202    2.3561  -44.8483 C   0  0  0  0  0  0  0  0  0  0  0  0
  -35.4205    1.3604  -45.2074 C   0  0  0  0  0  0  0  0  0  0  0  0
  -35.7908    0.3947  -46.1225 C   0  0  0  0  0  0  0  0  0  0  0  0
  -37.0556    0.4180  -46.6811 C   0  0  0  0  0  0  0  0  0  0  0  0
  -37.4563   -0.6379  -47.6790 C   0  0  0  0  0  0  0  0  0  0  0  0
  -38.0566   -1.7771  -46.9721 N   0  0  0  0  0  0  0  0  0  0  0  0
  -37.9537    1.4077  -46.3259 C   0  0  0  0  0  0  0  0  0  0  0  0
  -37.5917    2.3735  -45.4075 C   0  0  0  0  0  0  0  0  0  0  0  0
  -38.5266   -3.0010  -48.0700 X   0  0  0  0  0  0  0  0  0  0  0  0
  1  2  1  0  0  0  0
  2  3  1  0  0  0  0
  2  7  1  0  0  0  0
  3  4  1  0  0  0  0
  4  5  1  0  0  0  0
  5  6  1  0  0  0  0
  5  8  1  0  0  0  0
  6  7  1  0  0  0  0
  8  9  2  0  0  0  0
  8 15  1  0  0  0  0
  9 10  1  0  0  0  0
 10 11  2  0  0  0  0
 11 12  1  0  0  0  0
 11 14  1  0  0  0  0
 12 13  1  0  0  0  0
 13 16  1  0  0  0  0
 14 15  2  0  0  0  0
M  END
> <Index>
5808

> <PropertyFieldDistance>
nan

$$$$
7866842
BBcorina  12272117083D 1   1.00000     0.00000 
CORINA 4.3.0 0026  30.10.2019
 12 12  0  0  0  0  0  0  0  0999 V2000
  -34.7882    5.5414  -40.3785 C   0  0  0  0  0  0  0  0  0  0  0  0
  -34.9622    6.5319  -41.4494 N   0  0  0  0  0  0  0  0  0  0  0  0
  -35.9369    7.5604  -41.0619 C   0  0  0  0  0  0  0  0  0  0  0  0
  -35.3784    8.3790  -39.8963 C   0  0  0  0  0  0  0  0  0  0  0  0
  -34.2223    9.0982  -40.3299 O   0  0  0  0  0  0  0  0  0  0  0  0
  -35.3535    5.8833  -42.7079 C   0  0  0  0  0  0  0  0  0  0  0  0
  -36.6585    5.1099  -42.5008 C   0  0  0  0  0  0  0  0  0  0  0  0
  -37.0291    4.3869  -43.7977 C   0  0  0  0  0  0  0  0  0  0  0  0
  -35.9480    3.4664  -44.1723 N   0  0  0  0  0  0  0  0  0  0  0  0
  -34.6958    4.1916  -44.4226 C   0  0  0  0  0  0  0  0  0  0  0  0
  -34.2559    4.9088  -43.1442 C   0  0  0  0  0  0  0  0  0  0  0  0
  -36.3899    2.5211  -45.5270 X   0  0  0  0  0  0  0  0  0  0  0  0
  1  2  1  0  0  0  0
  2  3  1  0  0  0  0
  2  6  1  0  0  0  0
  3  4  1  0  0  0  0
  4  5  1  0  0  0  0
  6  7  1  0  0  0  0
  6 11  1  0  0  0  0
  7  8  1  0  0  0  0
  8  9  1  0  0  0  0
  9 10  1  0  0  0  0
  9 12  1  0  0  0  0
 10 11  1  0  0  0  0
M  END
> <Index>
5826

> <PropertyFieldDistance>
nan

$$$$
3701116
BBcorina  12272117083D 1   1.00000     0.00000 
CORINA 4.3.0 0026  30.10.2019
 15 16  0  0  0  0  0  0  0  0999 V2000
  -34.5341   -1.9028  -44.7618 C   0  0  0  0  0  0  0  0  0  0  0  0
  -34.8031   -0.5297  -45.1959 N   0  0  0  0  0  0  0  0  0  0  0  0
  -35.7898    0.2689  -44.7379 C   0  0  0  0  0  0  0  0  0  0  0  0
  -35.6981    1.4521  -45.3881 C   0  0  0  0  0  0  0  0  0  0  0  0
  -36.5999    2.6436  -45.1925 C   0  0  0  0  0  0  0  0  0  0  0  0
  -36.0479    3.5081  -44.1410 N   0  0  0  0  0  0  0  0  0  0  0  0
  -37.0507    4.4955  -43.6859 C   0  0  0  0  0  0  0  0  0  0  0  0
  -36.7255    4.8884  -42.2666 C   0  0  0  0  0  0  0  0  0  0  0  0
  -35.8285    6.1348  -42.2029 C   0  0  0  0  0  0  0  0  0  0  0  0
  -34.7585    6.1150  -43.2261 N   0  0  0  0  0  0  0  0  0  0  0  0
  -34.1317    4.8228  -43.3917 C   0  0  0  0  0  0  0  0  0  0  0  0
  -34.8317    4.0734  -44.5433 C   0  0  0  0  0  0  0  0  0  0  0  0
  -34.6184    1.3739  -46.2739 C   0  0  0  0  0  0  0  0  0  0  0  0
  -34.0778    0.1883  -46.1555 N   0  0  0  0  0  0  0  0  0  0  0  0
  -33.5922    7.3267  -42.9167 X   0  0  0  0  0  0  0  0  0  0  0  0
  1  2  1  0  0  0  0
  2  3  1  0  0  0  0
  2 14  1  0  0  0  0
  3  4  2  0  0  0  0
  4  5  1  0  0  0  0
  4 13  1  0  0  0  0
  5  6  1  0  0  0  0
  6  7  1  0  0  0  0
  6 12  1  0  0  0  0
  7  8  1  0  0  0  0
  8  9  1  0  0  0  0
  9 10  1  0  0  0  0
 10 11  1  0  0  0  0
 10 15  1  0  0  0  0
 11 12  1  0  0  0  0
 13 14  2  0  0  0  0
M  END
> <Index>
5827

> <PropertyFieldDistance>
nan

$$$$
3701130
BBcorina  12272117083D 1   1.00000     0.00000 
CORINA 4.3.0 0026  30.10.2019
 10 11  0  0  0  0  0  0  0  0999 V2000
  -35.9505    3.4803  -44.1369 N   0  0  0  0  0  0  0  0  0  0  0  0
  -36.9612    4.5002  -43.8235 C   0  0  0  0  0  0  0  0  0  0  0  0
  -36.6965    5.0805  -42.4277 C   0  0  0  0  0  0  0  0  0  0  0  0
  -35.2835    5.4522  -42.3469 N   0  0  0  0  0  0  0  0  0  0  0  0
  -34.6546    6.2548  -41.4712 C   0  0  0  0  0  0  0  0  0  0  0  0
  -33.3927    6.2871  -41.8186 N   0  0  0  0  0  0  0  0  0  0  0  0
  -33.2088    5.5514  -42.8620 N   0  0  0  0  0  0  0  0  0  0  0  0
  -34.3360    5.0218  -43.2216 C   0  0  0  0  0  0  0  0  0  0  0  0
  -34.6299    4.0913  -44.3710 C   0  0  0  0  0  0  0  0  0  0  0  0
  -35.8691    2.2989  -42.9034 X   0  0  0  0  0  0  0  0  0  0  0  0
  1  2  1  0  0  0  0
  1  9  1  0  0  0  0
  1 10  1  0  0  0  0
  2  3  1  0  0  0  0
  3  4  1  0  0  0  0
  4  5  1  0  0  0  0
  4  8  1  0  0  0  0
  5  6  2  0  0  0  0
  6  7  1  0  0  0  0
  7  8  2  0  0  0  0
  8  9  1  0  0  0  0
M  END
> <Index>
5831

> <PropertyFieldDistance>
nan

$$$$
12421176
BBcorina  12272117083D 1   1.00000     0.00000 
CORINA 4.3.0 0026  30.10.2019
 11 11  0  0  0  0  0  0  0  0999 V2000
  -38.3234    8.3003  -41.1376 C   0  0  0  0  0  0  0  0  0  0  0  0
  -37.2913    7.2778  -41.3544 N   0  0  0  0  0  0  0  0  0  0  0  0
  -37.7052    6.3238  -42.3919 C   0  0  0  0  0  0  0  0  0  0  0  0
  -36.6072    5.2766  -42.5892 C   0  0  0  0  0  0  0  0  0  0  0  0
  -37.0377    4.2818  -43.6704 C   0  0  0  0  0  0  0  0  0  0  0  0
  -35.9484    3.3239  -43.9092 N   0  0  0  0  0  0  0  0  0  0  0  0
  -36.3427    2.3152  -44.9018 C   0  0  0  0  0  0  0  0  0  0  0  0
  -34.7230    4.0214  -44.3251 C   0  0  0  0  0  0  0  0  0  0  0  0
  -34.3157    5.0188  -43.2374 C   0  0  0  0  0  0  0  0  0  0  0  0
  -35.3979    5.9222  -42.9967 O   0  0  0  0  0  0  0  0  0  0  0  0
  -36.9127    6.4703  -39.8954 X   0  0  0  0  0  0  0  0  0  0  0  0
  1  2  1  0  0  0  0
  2  3  1  0  0  0  0
  2 11  1  0  0  0  0
  3  4  1  0  0  0  0
  4  5  1  0  0  0  0
  4 10  1  0  0  0  0
  5  6  1  0  0  0  0
  6  7  1  0  0  0  0
  6  8  1  0  0  0  0
  8  9  1  0  0  0  0
  9 10  1  0  0  0  0
M  END
> <Index>
5834

> <PropertyFieldDistance>
nan

$$$$
5000080
BBcorina  12272117083D 1   1.00000     0.00000 
CORINA 4.3.0 0026  30.10.2019
 11 11  0  0  0  0  0  0  0  0999 V2000
  -37.6899    7.7341  -41.4735 C   0  0  0  0  0  0  0  0  0  0  0  0
  -37.3164    6.5577  -40.6769 N   0  0  0  0  0  0  0  0  0  0  0  0
  -38.0221    6.5488  -39.3885 C   0  0  0  0  0  0  0  0  0  0  0  0
  -37.5657    5.3165  -41.4222 C   0  0  0  0  0  0  0  0  0  0  0  0
  -36.6292    5.2503  -42.6303 C   0  0  0  0  0  0  0  0  0  0  0  0
  -36.9722    4.0212  -43.4762 C   0  0  0  0  0  0  0  0  0  0  0  0
  -36.0221    3.9199  -44.5935 N   0  0  0  0  0  0  0  0  0  0  0  0
  -34.6417    3.8205  -44.0949 C   0  0  0  0  0  0  0  0  0  0  0  0
  -34.3221    5.0517  -43.2428 C   0  0  0  0  0  0  0  0  0  0  0  0
  -35.2751    5.1508  -42.1811 O   0  0  0  0  0  0  0  0  0  0  0  0
  -36.4062    2.5970  -45.6066 X   0  0  0  0  0  0  0  0  0  0  0  0
  1  2  1  0  0  0  0
  2  3  1  0  0  0  0
  2  4  1  0  0  0  0
  4  5  1  0  0  0  0
  5  6  1  0  0  0  0
  5 10  1  0  0  0  0
  6  7  1  0  0  0  0
  7  8  1  0  0  0  0
  7 11  1  0  0  0  0
  8  9  1  0  0  0  0
  9 10  1  0  0  0  0
M  END
> <Index>
5835

> <PropertyFieldDistance>
nan

$$$$
3701196
BBcorina  12272117083D 1   1.00000     0.00000 
CORINA 4.3.0 0026  30.10.2019
 10 11  0  0  0  0  0  0  0  0999 V2000
  -35.9997    3.8444  -44.5300 N   0  0  0  0  0  0  0  0  0  0  0  0
  -36.9694    4.0841  -43.4572 C   0  0  0  0  0  0  0  0  0  0  0  0
  -36.6473    5.3838  -42.7026 C   0  0  0  0  0  0  0  0  0  0  0  0
  -35.2798    5.2788  -42.2129 N   0  0  0  0  0  0  0  0  0  0  0  0
  -34.7404    6.4085  -41.4361 C   0  0  0  0  0  0  0  0  0  0  0  0
  -33.2031    6.1961  -41.4898 C   0  0  0  0  0  0  0  0  0  0  0  0
  -32.9626    5.3417  -42.7613 C   0  0  0  0  0  0  0  0  0  0  0  0
  -34.3565    5.1892  -43.3771 C   0  0  0  0  0  0  0  0  0  0  0  0
  -34.6048    3.8461  -44.0477 C   0  0  0  0  0  0  0  0  0  0  0  0
  -36.3569    2.3965  -45.3668 X   0  0  0  0  0  0  0  0  0  0  0  0
  1  2  1  0  0  0  0
  1  9  1  0  0  0  0
  1 10  1  0  0  0  0
  2  3  1  0  0  0  0
  3  4  1  0  0  0  0
  4  5  1  0  0  0  0
  4  8  1  0  0  0  0
  5  6  1  0  0  0  0
  6  7  1  0  0  0  0
  7  8  1  0  0  0  0
  8  9  1  0  0  0  0
M  END
> <Index>
5836

> <PropertyFieldDistance>
nan

$$$$
4970232
BBcorina  12272117083D 1   1.00000     0.00000 
CORINA 4.3.0 0026  30.10.2019
 14 15  0  0  0  0  0  0  0  0999 V2000
  -37.4968    3.1548  -48.5348 C   0  0  0  0  0  0  0  0  0  0  0  0
  -37.0588    2.3783  -47.3673 N   0  0  0  0  0  0  0  0  0  0  0  0
  -35.9671    1.4630  -47.7235 C   0  0  0  0  0  0  0  0  0  0  0  0
  -35.6354    0.5715  -46.5247 C   0  0  0  0  0  0  0  0  0  0  0  0
  -35.2253    1.4492  -45.3391 C   0  0  0  0  0  0  0  0  0  0  0  0
  -36.3611    2.4252  -45.0196 C   0  0  0  0  0  0  0  0  0  0  0  0
  -36.6711    3.2636  -46.2618 C   0  0  0  0  0  0  0  0  0  0  0  0
  -35.9530    3.3098  -43.9201 N   0  0  0  0  0  0  0  0  0  0  0  0
  -37.0212    4.2619  -43.5861 C   0  0  0  0  0  0  0  0  0  0  0  0
  -36.5888    5.1099  -42.3875 C   0  0  0  0  0  0  0  0  0  0  0  0
  -35.3417    5.8153  -42.7143 N   0  0  0  0  0  0  0  0  0  0  0  0
  -34.2734    4.8631  -43.0484 C   0  0  0  0  0  0  0  0  0  0  0  0
  -34.7058    4.0152  -44.2470 C   0  0  0  0  0  0  0  0  0  0  0  0
  -34.8666    6.8450  -41.4344 X   0  0  0  0  0  0  0  0  0  0  0  0
  1  2  1  0  0  0  0
  2  3  1  0  0  0  0
  2  7  1  0  0  0  0
  3  4  1  0  0  0  0
  4  5  1  0  0  0  0
  5  6  1  0  0  0  0
  6  7  1  0  0  0  0
  6  8  1  0  0  0  0
  8  9  1  0  0  0  0
  8 13  1  0  0  0  0
  9 10  1  0  0  0  0
 10 11  1  0  0  0  0
 11 12  1  0  0  0  0
 11 14  1  0  0  0  0
 12 13  1  0  0  0  0
M  END
> <Index>
5847

> <PropertyFieldDistance>
nan

$$$$
3937072
BBcorina  12272117083D 1   1.00000     0.00000 
CORINA 4.3.0 0026  30.10.2019
 14 15  0  0  0  0  0  0  0  0999 V2000
  -32.8895    0.9712  -47.9770 C   0  0  0  0  0  0  0  0  0  0  0  0
  -33.9781    1.0613  -46.9387 C   0  0  0  0  0  0  0  0  0  0  0  0
  -34.7750    2.0814  -46.7293 N   0  0  0  0  0  0  0  0  0  0  0  0
  -35.5753    1.7129  -45.7132 C   0  0  0  0  0  0  0  0  0  0  0  0
  -36.6706    2.5427  -45.0944 C   0  0  0  0  0  0  0  0  0  0  0  0
  -36.1183    3.3364  -43.9885 N   0  0  0  0  0  0  0  0  0  0  0  0
  -37.0927    4.3292  -43.5148 C   0  0  0  0  0  0  0  0  0  0  0  0
  -36.5103    5.0792  -42.3144 C   0  0  0  0  0  0  0  0  0  0  0  0
  -35.2517    5.7272  -42.7086 N   0  0  0  0  0  0  0  0  0  0  0  0
  -34.2773    4.7345  -43.1823 C   0  0  0  0  0  0  0  0  0  0  0  0
  -34.8596    3.9845  -44.3827 C   0  0  0  0  0  0  0  0  0  0  0  0
  -35.2308    0.5099  -45.3630 N   0  0  0  0  0  0  0  0  0  0  0  0
  -34.3149    0.1173  -46.0547 O   0  0  0  0  0  0  0  0  0  0  0  0
  -34.6088    6.6511  -41.4212 X   0  0  0  0  0  0  0  0  0  0  0  0
  1  2  1  0  0  0  0
  2  3  2  0  0  0  0
  2 13  1  0  0  0  0
  3  4  1  0  0  0  0
  4  5  1  0  0  0  0
  4 12  2  0  0  0  0
  5  6  1  0  0  0  0
  6  7  1  0  0  0  0
  6 11  1  0  0  0  0
  7  8  1  0  0  0  0
  8  9  1  0  0  0  0
  9 10  1  0  0  0  0
  9 14  1  0  0  0  0
 10 11  1  0  0  0  0
 12 13  1  0  0  0  0
M  END
> <Index>
5848

> <PropertyFieldDistance>
nan

$$$$
16516442
BBcorina  12272117083D 1   1.00000     0.00000 
CORINA 4.3.0 0026  30.10.2019
 10 10  0  0  0  0  0  0  0  0999 V2000
  -38.9290    5.0468  -41.5437 C   0  0  0  0  0  0  0  0  0  0  0  0
  -37.5898    5.7702  -41.6978 C   0  0  0  0  0  0  0  0  0  0  0  0
  -36.5701    4.8251  -42.3365 C   0  0  0  0  0  0  0  0  0  0  0  0
  -37.0095    4.4889  -43.7635 C   0  0  0  0  0  0  0  0  0  0  0  0
  -36.0087    3.6125  -44.3878 N   0  0  0  0  0  0  0  0  0  0  0  0
  -34.6919    4.2639  -44.4242 C   0  0  0  0  0  0  0  0  0  0  0  0
  -34.2525    4.6001  -42.9972 C   0  0  0  0  0  0  0  0  0  0  0  0
  -35.2533    5.4764  -42.3724 N   0  0  0  0  0  0  0  0  0  0  0  0
  -34.8301    5.8829  -41.0257 C   0  0  0  0  0  0  0  0  0  0  0  0
  -36.5015    3.1388  -45.9553 X   0  0  0  0  0  0  0  0  0  0  0  0
  1  2  1  0  0  0  0
  2  3  1  0  0  0  0
  3  4  1  0  0  0  0
  3  8  1  0  0  0  0
  4  5  1  0  0  0  0
  5  6  1  0  0  0  0
  5 10  1  0  0  0  0
  6  7  1  0  0  0  0
  7  8  1  0  0  0  0
  8  9  1  0  0  0  0
M  END
> <Index>
5861

> <PropertyFieldDistance>
nan

$$$$
12898016
BBcorina  12272117083D 1   1.00000     0.00000 
CORINA 4.3.0 0026  30.10.2019
 10 10  0  0  0  0  0  0  0  0999 V2000
  -36.3409    2.3418  -44.9173 C   0  0  0  0  0  0  0  0  0  0  0  0
  -36.0390    3.6659  -44.3572 N   0  0  0  0  0  0  0  0  0  0  0  0
  -36.9565    3.9941  -43.2572 C   0  0  0  0  0  0  0  0  0  0  0  0
  -36.6612    5.4094  -42.7551 C   0  0  0  0  0  0  0  0  0  0  0  0
  -35.2624    5.4869  -42.3113 N   0  0  0  0  0  0  0  0  0  0  0  0
  -34.3448    5.1588  -43.4113 C   0  0  0  0  0  0  0  0  0  0  0  0
  -34.6402    3.7435  -43.9134 C   0  0  0  0  0  0  0  0  0  0  0  0
  -34.4076    2.7412  -42.7810 C   0  0  0  0  0  0  0  0  0  0  0  0
  -33.7138    3.4134  -45.0854 C   0  0  0  0  0  0  0  0  0  0  0  0
  -34.9109    7.0282  -41.6593 X   0  0  0  0  0  0  0  0  0  0  0  0
  1  2  1  0  0  0  0
  2  3  1  0  0  0  0
  2  7  1  0  0  0  0
  3  4  1  0  0  0  0
  4  5  1  0  0  0  0
  5  6  1  0  0  0  0
  5 10  1  0  0  0  0
  6  7  1  0  0  0  0
  7  8  1  0  0  0  0
  7  9  1  0  0  0  0
M  END
> <Index>
5862

> <PropertyFieldDistance>
nan

$$$$
4603046
BBcorina  12272117083D 1   1.00000     0.00000 
CORINA 4.3.0 0026  30.10.2019
 13 14  0  0  0  0  0  0  0  0999 V2000
  -36.0191    3.9414  -44.5845 N   0  0  0  0  0  0  0  0  0  0  0  0
  -36.9723    4.0086  -43.4695 C   0  0  0  0  0  0  0  0  0  0  0  0
  -36.6793    5.2476  -42.6202 C   0  0  0  0  0  0  0  0  0  0  0  0
  -35.2461    5.1686  -42.0871 C   0  0  0  0  0  0  0  0  0  0  0  0
  -34.2770    5.0496  -43.2665 C   0  0  0  0  0  0  0  0  0  0  0  0
  -34.6396    3.8164  -44.0970 C   0  0  0  0  0  0  0  0  0  0  0  0
  -32.9079    4.9148  -42.7629 N   0  0  0  0  0  0  0  0  0  0  0  0
  -31.8197    5.8533  -43.0612 C   0  0  0  0  0  0  0  0  0  0  0  0
  -30.7267    5.5679  -42.0075 C   0  0  0  0  0  0  0  0  0  0  0  0
  -31.0215    4.0956  -41.6383 C   0  0  0  0  0  0  0  0  0  0  0  0
  -32.4877    3.9174  -41.9657 C   0  0  0  0  0  0  0  0  0  0  0  0
  -33.1818    3.0046  -41.5706 O   0  0  0  0  0  0  0  0  0  0  0  0
  -36.4110    2.6622  -45.6494 X   0  0  0  0  0  0  0  0  0  0  0  0
  1  2  1  0  0  0  0
  1  6  1  0  0  0  0
  1 13  1  0  0  0  0
  2  3  1  0  0  0  0
  3  4  1  0  0  0  0
  4  5  1  0  0  0  0
  5  6  1  0  0  0  0
  5  7  1  0  0  0  0
  7  8  1  0  0  0  0
  7 11  1  0  0  0  0
  8  9  1  0  0  0  0
  9 10  1  0  0  0  0
 10 11  1  0  0  0  0
 11 12  2  0  0  0  0
M  END
> <Index>
5864

> <PropertyFieldDistance>
nan

$$$$
4995256
BBcorina  12272117083D 1   1.00000     0.00000 
CORINA 4.3.0 0026  30.10.2019
 11 11  0  0  0  0  0  0  0  0999 V2000
  -37.1101    1.9377  -45.5805 C   0  0  0  0  0  0  0  0  0  0  0  0
  -35.7040    2.2622  -45.0721 C   0  0  0  0  0  0  0  0  0  0  0  0
  -35.7000    3.5988  -44.4627 N   0  0  0  0  0  0  0  0  0  0  0  0
  -36.8468    3.7691  -43.5586 C   0  0  0  0  0  0  0  0  0  0  0  0
  -36.8371    5.1917  -42.9932 C   0  0  0  0  0  0  0  0  0  0  0  0
  -35.5894    5.4296  -42.3358 O   0  0  0  0  0  0  0  0  0  0  0  0
  -34.4510    5.2731  -43.1872 C   0  0  0  0  0  0  0  0  0  0  0  0
  -33.1732    5.5157  -42.3814 C   0  0  0  0  0  0  0  0  0  0  0  0
  -33.1909    6.8787  -41.8339 N   0  0  0  0  0  0  0  0  0  0  0  0
  -34.4366    3.8512  -43.7546 C   0  0  0  0  0  0  0  0  0  0  0  0
  -31.7774    7.1921  -40.9242 X   0  0  0  0  0  0  0  0  0  0  0  0
  1  2  1  0  0  0  0
  2  3  1  0  0  0  0
  3  4  1  0  0  0  0
  3 10  1  0  0  0  0
  4  5  1  0  0  0  0
  5  6  1  0  0  0  0
  6  7  1  0  0  0  0
  7  8  1  0  0  0  0
  7 10  1  0  0  0  0
  8  9  1  0  0  0  0
  9 11  1  0  0  0  0
M  END
> <Index>
5874

> <PropertyFieldDistance>
nan

$$$$
4146712
BBcorina  12272117083D 1   1.00000     0.00000 
CORINA 4.3.0 0026  30.10.2019
 14 14  0  0  0  0  0  0  0  0999 V2000
  -34.0243    5.9038  -40.2090 C   0  0  0  0  0  0  0  0  0  0  0  0
  -35.0078    6.1195  -41.2231 O   0  0  0  0  0  0  0  0  0  0  0  0
  -35.2478    4.9803  -42.0516 C   0  0  0  0  0  0  0  0  0  0  0  0
  -36.6978    5.0015  -42.5432 C   0  0  0  0  0  0  0  0  0  0  0  0
  -36.9317    3.8129  -43.4785 C   0  0  0  0  0  0  0  0  0  0  0  0
  -36.0086    3.8957  -44.6175 N   0  0  0  0  0  0  0  0  0  0  0  0
  -34.6104    3.8296  -44.1738 C   0  0  0  0  0  0  0  0  0  0  0  0
  -34.3072    5.0186  -43.2592 C   0  0  0  0  0  0  0  0  0  0  0  0
  -36.2972    2.8484  -45.6063 C   0  0  0  0  0  0  0  0  0  0  0  0
  -36.2326    1.4772  -44.9304 C   0  0  0  0  0  0  0  0  0  0  0  0
  -35.2634    2.9111  -46.7324 C   0  0  0  0  0  0  0  0  0  0  0  0
  -37.6964    3.0658  -46.1859 C   0  0  0  0  0  0  0  0  0  0  0  0
  -37.8024    4.4343  -46.7093 N   0  0  0  0  0  0  0  0  0  0  0  0
  -39.3544    4.7200  -47.3679 X   0  0  0  0  0  0  0  0  0  0  0  0
  1  2  1  0  0  0  0
  2  3  1  0  0  0  0
  3  4  1  0  0  0  0
  3  8  1  0  0  0  0
  4  5  1  0  0  0  0
  5  6  1  0  0  0  0
  6  7  1  0  0  0  0
  6  9  1  0  0  0  0
  7  8  1  0  0  0  0
  9 10  1  0  0  0  0
  9 11  1  0  0  0  0
  9 12  1  0  0  0  0
 12 13  1  0  0  0  0
 13 14  1  0  0  0  0
M  END
> <Index>
5880

> <PropertyFieldDistance>
nan

$$$$
4066640
BBcorina  12272117083D 1   1.00000     0.00000 
CORINA 4.3.0 0026  30.10.2019
 11 12  0  0  0  0  0  0  0  0999 V2000
  -35.9800    4.0569  -44.5265 N   0  0  0  0  0  0  0  0  0  0  0  0
  -36.9727    4.0113  -43.4738 C   0  0  0  0  0  0  0  0  0  0  0  0
  -36.9694    5.1738  -42.5081 C   0  0  0  0  0  0  0  0  0  0  0  0
  -35.7393    5.1148  -41.5926 C   0  0  0  0  0  0  0  0  0  0  0  0
  -34.5565    5.6506  -42.3891 C   0  0  0  0  0  0  0  0  0  0  0  0
  -33.6709    7.1239  -42.0265 S   0  0  0  0  0  0  0  0  0  0  0  0
  -32.6021    6.8496  -43.3955 C   0  0  0  0  0  0  0  0  0  0  0  0
  -32.9553    5.7276  -44.0182 C   0  0  0  0  0  0  0  0  0  0  0  0
  -34.0462    5.0566  -43.4706 C   0  0  0  0  0  0  0  0  0  0  0  0
  -34.6190    3.7651  -44.0587 C   0  0  0  0  0  0  0  0  0  0  0  0
  -36.0354    5.5508  -45.3568 X   0  0  0  0  0  0  0  0  0  0  0  0
  1  2  1  0  0  0  0
  1 10  1  0  0  0  0
  1 11  1  0  0  0  0
  2  3  1  0  0  0  0
  3  4  1  0  0  0  0
  4  5  1  0  0  0  0
  5  6  1  0  0  0  0
  5  9  2  0  0  0  0
  6  7  1  0  0  0  0
  7  8  2  0  0  0  0
  8  9  1  0  0  0  0
  9 10  1  0  0  0  0
M  END
> <Index>
5896

> <PropertyFieldDistance>
nan

$$$$
4279154
BBcorina  12272117083D 1   1.00000     0.00000 
CORINA 4.3.0 0026  30.10.2019
  9  9  0  0  0  0  0  0  0  0999 V2000
  -34.5991    4.3957  -45.1009 C   0  0  0  0  0  0  0  0  0  0  0  0
  -36.0379    3.8850  -45.0015 C   0  0  0  0  0  0  0  0  0  0  0  0
  -36.6579    4.3600  -43.6859 C   0  0  0  0  0  0  0  0  0  0  0  0
  -35.8415    3.8162  -42.5117 C   0  0  0  0  0  0  0  0  0  0  0  0
  -35.8439    2.2868  -42.5538 C   0  0  0  0  0  0  0  0  0  0  0  0
  -35.2239    1.8118  -43.8694 C   0  0  0  0  0  0  0  0  0  0  0  0
  -36.0403    2.3556  -45.0436 C   0  0  0  0  0  0  0  0  0  0  0  0
  -35.0600    1.7647  -41.4264 N   0  0  0  0  0  0  0  0  0  0  0  0
  -33.4721    2.3992  -41.4382 X   0  0  0  0  0  0  0  0  0  0  0  0
  1  2  1  0  0  0  0
  2  3  1  0  0  0  0
  2  7  1  0  0  0  0
  3  4  1  0  0  0  0
  4  5  1  0  0  0  0
  5  6  1  0  0  0  0
  5  8  1  0  0  0  0
  6  7  1  0  0  0  0
  8  9  1  0  0  0  0
M  END
> <Index>
5914

> <PropertyFieldDistance>
nan

$$$$
4145976
BBcorina  12272117083D 1   1.00000     0.00000 
CORINA 4.3.0 0026  30.10.2019
 15 15  0  0  0  0  0  0  0  0999 V2000
  -35.6023    1.7220  -45.7087 C   0  0  0  0  0  0  0  0  0  0  0  0
  -36.5898    2.5687  -44.9478 C   0  0  0  0  0  0  0  0  0  0  0  0
  -37.7554    2.2384  -44.8919 O   0  0  0  0  0  0  0  0  0  0  0  0
  -36.1776    3.6932  -44.3295 N   0  0  0  0  0  0  0  0  0  0  0  0
  -37.1294    4.5286  -43.5839 C   0  0  0  0  0  0  0  0  0  0  0  0
  -36.6093    4.7051  -42.1519 C   0  0  0  0  0  0  0  0  0  0  0  0
  -35.2001    5.1180  -42.2116 N   0  0  0  0  0  0  0  0  0  0  0  0
  -34.2494    4.2855  -42.9619 C   0  0  0  0  0  0  0  0  0  0  0  0
  -34.7684    4.1060  -44.3892 C   0  0  0  0  0  0  0  0  0  0  0  0
  -34.7881    6.2428  -41.5940 C   0  0  0  0  0  0  0  0  0  0  0  0
  -35.5829    6.9246  -40.9820 O   0  0  0  0  0  0  0  0  0  0  0  0
  -33.3398    6.6536  -41.6640 C   0  0  0  0  0  0  0  0  0  0  0  0
  -33.1409    7.9558  -40.8858 C   0  0  0  0  0  0  0  0  0  0  0  0
  -31.7292    8.3562  -40.9539 N   0  0  0  0  0  0  0  0  0  0  0  0
  -31.4625    9.8105  -40.0950 X   0  0  0  0  0  0  0  0  0  0  0  0
  1  2  1  0  0  0  0
  2  3  2  0  0  0  0
  2  4  1  0  0  0  0
  4  5  1  0  0  0  0
  4  9  1  0  0  0  0
  5  6  1  0  0  0  0
  6  7  1  0  0  0  0
  7  8  1  0  0  0  0
  7 10  1  0  0  0  0
  8  9  1  0  0  0  0
 10 11  2  0  0  0  0
 10 12  1  0  0  0  0
 12 13  1  0  0  0  0
 13 14  1  0  0  0  0
 14 15  1  0  0  0  0
M  END
> <Index>
5947

> <PropertyFieldDistance>
nan

$$$$
4147592
BBcorina  12272117083D 1   1.00000     0.00000 
CORINA 4.3.0 0026  30.10.2019
  8  8  0  0  0  0  0  0  0  0999 V2000
  -36.0221    3.9355  -44.5807 N   0  0  0  0  0  0  0  0  0  0  0  0
  -36.9318    3.9942  -43.4301 C   0  0  0  0  0  0  0  0  0  0  0  0
  -36.6964    5.2866  -42.6455 C   0  0  0  0  0  0  0  0  0  0  0  0
  -35.2668    5.2842  -42.0899 C   0  0  0  0  0  0  0  0  0  0  0  0
  -34.3166    5.0091  -43.2362 C   0  0  0  0  0  0  0  0  0  0  0  0
  -33.2630    5.7618  -43.4349 C   0  0  0  0  0  0  0  0  0  0  0  0
  -34.6205    3.8381  -44.1452 C   0  0  0  0  0  0  0  0  0  0  0  0
  -36.4320    2.6415  -45.6207 X   0  0  0  0  0  0  0  0  0  0  0  0
  1  2  1  0  0  0  0
  1  7  1  0  0  0  0
  1  8  1  0  0  0  0
  2  3  1  0  0  0  0
  3  4  1  0  0  0  0
  4  5  1  0  0  0  0
  5  6  2  0  0  0  0
  5  7  1  0  0  0  0
M  END
> <Index>
5959

> <PropertyFieldDistance>
nan

$$$$
4145874
BBcorina  12272117083D 1   1.00000     0.00000 
CORINA 4.3.0 0026  30.10.2019
 13 13  0  0  0  0  0  0  0  0999 V2000
  -36.0021    9.3128  -37.4626 C   0  0  0  0  0  0  0  0  0  0  0  0
  -36.3224    8.0491  -38.2632 C   0  0  0  0  0  0  0  0  0  0  0  0
  -35.3534    7.9325  -39.4415 C   0  0  0  0  0  0  0  0  0  0  0  0
  -35.6601    6.7224  -40.2081 N   0  0  0  0  0  0  0  0  0  0  0  0
  -34.9307    6.4122  -41.2983 C   0  0  0  0  0  0  0  0  0  0  0  0
  -34.0204    7.1350  -41.6444 O   0  0  0  0  0  0  0  0  0  0  0  0
  -35.2462    5.1675  -42.0868 C   0  0  0  0  0  0  0  0  0  0  0  0
  -36.6793    5.2476  -42.6203 C   0  0  0  0  0  0  0  0  0  0  0  0
  -36.9723    4.0086  -43.4694 C   0  0  0  0  0  0  0  0  0  0  0  0
  -36.0191    3.9414  -44.5845 N   0  0  0  0  0  0  0  0  0  0  0  0
  -34.6396    3.8164  -44.0971 C   0  0  0  0  0  0  0  0  0  0  0  0
  -34.2769    5.0496  -43.2664 C   0  0  0  0  0  0  0  0  0  0  0  0
  -36.4111    2.6624  -45.6495 X   0  0  0  0  0  0  0  0  0  0  0  0
  1  2  1  0  0  0  0
  2  3  1  0  0  0  0
  3  4  1  0  0  0  0
  4  5  1  0  0  0  0
  5  6  2  0  0  0  0
  5  7  1  0  0  0  0
  7  8  1  0  0  0  0
  7 12  1  0  0  0  0
  8  9  1  0  0  0  0
  9 10  1  0  0  0  0
 10 11  1  0  0  0  0
 10 13  1  0  0  0  0
 11 12  1  0  0  0  0
M  END
> <Index>
5961

> <PropertyFieldDistance>
nan

$$$$
5635262
BBcorina  12272117083D 1   1.00000     0.00000 
CORINA 4.3.0 0026  30.10.2019
 15 16  0  0  0  0  0  0  0  0999 V2000
  -34.6326    3.1031  -46.9182 Cl  0  0  0  0  0  0  0  0  0  0  0  0
  -35.7428    2.0319  -46.1219 C   0  0  0  0  0  0  0  0  0  0  0  0
  -36.0379    0.8025  -46.6789 C   0  0  0  0  0  0  0  0  0  0  0  0
  -36.9220   -0.0513  -46.0446 C   0  0  0  0  0  0  0  0  0  0  0  0
  -37.5133    0.3219  -44.8520 C   0  0  0  0  0  0  0  0  0  0  0  0
  -37.2186    1.5477  -44.2865 C   0  0  0  0  0  0  0  0  0  0  0  0
  -36.3357    2.4099  -44.9225 C   0  0  0  0  0  0  0  0  0  0  0  0
  -36.0395    3.6524  -44.3558 N   0  0  0  0  0  0  0  0  0  0  0  0
  -36.9539    3.9570  -43.2478 C   0  0  0  0  0  0  0  0  0  0  0  0
  -36.6957    5.3802  -42.7480 C   0  0  0  0  0  0  0  0  0  0  0  0
  -35.2420    5.4971  -42.2814 C   0  0  0  0  0  0  0  0  0  0  0  0
  -34.3112    5.1270  -43.4396 C   0  0  0  0  0  0  0  0  0  0  0  0
  -34.6386    3.7111  -43.9194 C   0  0  0  0  0  0  0  0  0  0  0  0
  -32.9158    5.1799  -42.9834 N   0  0  0  0  0  0  0  0  0  0  0  0
  -32.6232    4.0118  -41.7694 X   0  0  0  0  0  0  0  0  0  0  0  0
  1  2  1  0  0  0  0
  2  3  2  0  0  0  0
  2  7  1  0  0  0  0
  3  4  1  0  0  0  0
  4  5  2  0  0  0  0
  5  6  1  0  0  0  0
  6  7  2  0  0  0  0
  7  8  1  0  0  0  0
  8  9  1  0  0  0  0
  8 13  1  0  0  0  0
  9 10  1  0  0  0  0
 10 11  1  0  0  0  0
 11 12  1  0  0  0  0
 12 13  1  0  0  0  0
 12 14  1  0  0  0  0
 14 15  1  0  0  0  0
M  END
> <Index>
5970

> <PropertyFieldDistance>
nan

$$$$
5055352
BBcorina  12272117083D 1   1.00000     0.00000 
CORINA 4.3.0 0026  30.10.2019
 16 17  0  0  0  0  0  0  0  0999 V2000
  -37.3564    3.3037  -48.3341 C   0  0  0  0  0  0  0  0  0  0  0  0
  -36.9087    3.4613  -46.9863 O   0  0  0  0  0  0  0  0  0  0  0  0
  -36.7688    2.3290  -46.2456 C   0  0  0  0  0  0  0  0  0  0  0  0
  -37.0615    1.0953  -46.8020 C   0  0  0  0  0  0  0  0  0  0  0  0
  -36.9243   -0.0548  -46.0458 C   0  0  0  0  0  0  0  0  0  0  0  0
  -36.4953    0.0229  -44.7343 C   0  0  0  0  0  0  0  0  0  0  0  0
  -36.2010    1.2510  -44.1713 C   0  0  0  0  0  0  0  0  0  0  0  0
  -36.3362    2.4083  -44.9233 C   0  0  0  0  0  0  0  0  0  0  0  0
  -36.0394    3.6528  -44.3556 N   0  0  0  0  0  0  0  0  0  0  0  0
  -36.9539    3.9573  -43.2476 C   0  0  0  0  0  0  0  0  0  0  0  0
  -36.6956    5.3806  -42.7479 C   0  0  0  0  0  0  0  0  0  0  0  0
  -35.2420    5.4964  -42.2811 C   0  0  0  0  0  0  0  0  0  0  0  0
  -34.3112    5.1273  -43.4395 C   0  0  0  0  0  0  0  0  0  0  0  0
  -34.6385    3.7114  -43.9192 C   0  0  0  0  0  0  0  0  0  0  0  0
  -32.9157    5.1812  -42.9836 N   0  0  0  0  0  0  0  0  0  0  0  0
  -32.6214    4.0115  -41.7714 X   0  0  0  0  0  0  0  0  0  0  0  0
  1  2  1  0  0  0  0
  2  3  1  0  0  0  0
  3  4  2  0  0  0  0
  3  8  1  0  0  0  0
  4  5  1  0  0  0  0
  5  6  2  0  0  0  0
  6  7  1  0  0  0  0
  7  8  2  0  0  0  0
  8  9  1  0  0  0  0
  9 10  1  0  0  0  0
  9 14  1  0  0  0  0
 10 11  1  0  0  0  0
 11 12  1  0  0  0  0
 12 13  1  0  0  0  0
 13 14  1  0  0  0  0
 13 15  1  0  0  0  0
 15 16  1  0  0  0  0
M  END
> <Index>
5971

> <PropertyFieldDistance>
nan

$$$$
4915374
BBcorina  12272117083D 1   1.00000     0.00000 
CORINA 4.3.0 0026  30.10.2019
 12 13  0  0  0  0  0  0  0  0999 V2000
  -34.1958    7.1055  -39.0827 C   0  0  0  0  0  0  0  0  0  0  0  0
  -33.9545    6.2919  -40.3557 C   0  0  0  0  0  0  0  0  0  0  0  0
  -34.5383    4.8882  -40.1819 C   0  0  0  0  0  0  0  0  0  0  0  0
  -34.2871    4.0716  -41.4521 C   0  0  0  0  0  0  0  0  0  0  0  0
  -34.9388    4.7672  -42.6426 C   0  0  0  0  0  0  0  0  0  0  0  0
  -36.4669    4.8275  -42.4447 C   0  0  0  0  0  0  0  0  0  0  0  0
  -37.0095    4.5486  -43.8699 C   0  0  0  0  0  0  0  0  0  0  0  0
  -36.0599    3.5390  -44.4051 N   0  0  0  0  0  0  0  0  0  0  0  0
  -34.7214    3.9480  -43.9233 C   0  0  0  0  0  0  0  0  0  0  0  0
  -34.3808    6.1761  -42.8148 C   0  0  0  0  0  0  0  0  0  0  0  0
  -34.6318    6.9850  -41.5396 C   0  0  0  0  0  0  0  0  0  0  0  0
  -36.1096    3.4963  -46.1138 X   0  0  0  0  0  0  0  0  0  0  0  0
  1  2  1  0  0  0  0
  2  3  1  0  0  0  0
  2 11  1  0  0  0  0
  3  4  1  0  0  0  0
  4  5  1  0  0  0  0
  5  6  1  0  0  0  0
  5  9  1  0  0  0  0
  5 10  1  0  0  0  0
  6  7  1  0  0  0  0
  7  8  1  0  0  0  0
  8  9  1  0  0  0  0
  8 12  1  0  0  0  0
 10 11  1  0  0  0  0
M  END
> <Index>
5973

> <PropertyFieldDistance>
nan

$$$$
4278910
BBcorina  12272117083D 1   1.00000     0.00000 
CORINA 4.3.0 0026  30.10.2019
 12 12  0  0  0  0  0  0  0  0999 V2000
  -34.7646    0.8208  -44.4001 C   0  0  0  0  0  0  0  0  0  0  0  0
  -35.5614    1.5460  -45.4864 C   0  0  0  0  0  0  0  0  0  0  0  0
  -36.2532    0.5597  -46.3270 N   0  0  0  0  0  0  0  0  0  0  0  0
  -36.5750    2.4566  -44.8426 C   0  0  0  0  0  0  0  0  0  0  0  0
  -37.7286    2.0986  -44.7331 O   0  0  0  0  0  0  0  0  0  0  0  0
  -36.2007    3.6710  -44.3935 N   0  0  0  0  0  0  0  0  0  0  0  0
  -37.1518    4.5285  -43.6731 C   0  0  0  0  0  0  0  0  0  0  0  0
  -36.5281    4.9420  -42.3365 C   0  0  0  0  0  0  0  0  0  0  0  0
  -35.1661    5.5911  -42.5927 C   0  0  0  0  0  0  0  0  0  0  0  0
  -34.2362    4.5799  -43.2672 C   0  0  0  0  0  0  0  0  0  0  0  0
  -34.8322    4.1598  -44.6096 C   0  0  0  0  0  0  0  0  0  0  0  0
  -35.2754    0.0866  -47.6477 X   0  0  0  0  0  0  0  0  0  0  0  0
  1  2  1  0  0  0  0
  2  3  1  0  0  0  0
  2  4  1  0  0  0  0
  3 12  1  0  0  0  0
  4  5  2  0  0  0  0
  4  6  1  0  0  0  0
  6  7  1  0  0  0  0
  6 11  1  0  0  0  0
  7  8  1  0  0  0  0
  8  9  1  0  0  0  0
  9 10  1  0  0  0  0
 10 11  1  0  0  0  0
M  END
> <Index>
5988

> <PropertyFieldDistance>
nan

$$$$
11951488
BBcorina  12272117083D 1   1.00000     0.00000 
CORINA 4.3.0 0026  30.10.2019
 14 15  0  0  0  0  0  0  0  0999 V2000
  -32.8988    1.1808  -48.0938 C   0  0  0  0  0  0  0  0  0  0  0  0
  -33.9483    1.1364  -47.0131 C   0  0  0  0  0  0  0  0  0  0  0  0
  -34.7945    2.0914  -46.7243 N   0  0  0  0  0  0  0  0  0  0  0  0
  -35.5753    1.7129  -45.7132 C   0  0  0  0  0  0  0  0  0  0  0  0
  -36.6706    2.5427  -45.0944 C   0  0  0  0  0  0  0  0  0  0  0  0
  -36.1183    3.3364  -43.9885 N   0  0  0  0  0  0  0  0  0  0  0  0
  -37.0927    4.3292  -43.5148 C   0  0  0  0  0  0  0  0  0  0  0  0
  -36.5103    5.0791  -42.3144 C   0  0  0  0  0  0  0  0  0  0  0  0
  -35.2517    5.7273  -42.7086 N   0  0  0  0  0  0  0  0  0  0  0  0
  -34.2773    4.7344  -43.1823 C   0  0  0  0  0  0  0  0  0  0  0  0
  -34.8596    3.9845  -44.3827 C   0  0  0  0  0  0  0  0  0  0  0  0
  -35.2410    0.5029  -45.3487 N   0  0  0  0  0  0  0  0  0  0  0  0
  -34.1825    0.1061  -46.1820 N   0  0  0  0  0  0  0  0  0  0  0  0
  -34.6088    6.6511  -41.4213 X   0  0  0  0  0  0  0  0  0  0  0  0
  1  2  1  0  0  0  0
  2  3  2  0  0  0  0
  2 13  1  0  0  0  0
  3  4  1  0  0  0  0
  4  5  1  0  0  0  0
  4 12  2  0  0  0  0
  5  6  1  0  0  0  0
  6  7  1  0  0  0  0
  6 11  1  0  0  0  0
  7  8  1  0  0  0  0
  8  9  1  0  0  0  0
  9 10  1  0  0  0  0
  9 14  1  0  0  0  0
 10 11  1  0  0  0  0
 12 13  1  0  0  0  0
M  END
> <Index>
6022

> <PropertyFieldDistance>
nan

$$$$
7425626
BBcorina  12272117083D 1   1.00000     0.00000 
CORINA 4.3.0 0026  30.10.2019
 13 13  0  0  0  0  0  0  0  0999 V2000
  -38.2002    5.6959  -44.7953 O   0  0  0  0  0  0  0  0  0  0  0  0
  -38.4174    4.5806  -43.9287 C   0  0  0  0  0  0  0  0  0  0  0  0
  -37.0789    4.1136  -43.3532 C   0  0  0  0  0  0  0  0  0  0  0  0
  -36.2984    5.3072  -42.7620 C   0  0  0  0  0  0  0  0  0  0  0  0
  -34.8202    5.0279  -43.1033 C   0  0  0  0  0  0  0  0  0  0  0  0
  -34.8320    3.6891  -43.8720 C   0  0  0  0  0  0  0  0  0  0  0  0
  -36.2036    3.5924  -44.4344 N   0  0  0  0  0  0  0  0  0  0  0  0
  -36.5418    2.2007  -44.7608 C   0  0  0  0  0  0  0  0  0  0  0  0
  -35.8012    1.7804  -46.0319 C   0  0  0  0  0  0  0  0  0  0  0  0
  -36.1536    0.3308  -46.3718 C   0  0  0  0  0  0  0  0  0  0  0  0
  -35.4129   -0.0894  -47.6429 C   0  0  0  0  0  0  0  0  0  0  0  0
  -35.7512   -1.4811  -47.9693 N   0  0  0  0  0  0  0  0  0  0  0  0
  -34.9426   -1.9922  -49.3868 X   0  0  0  0  0  0  0  0  0  0  0  0
  1  2  1  0  0  0  0
  2  3  1  0  0  0  0
  3  4  1  0  0  0  0
  3  7  1  0  0  0  0
  4  5  1  0  0  0  0
  5  6  1  0  0  0  0
  6  7  1  0  0  0  0
  7  8  1  0  0  0  0
  8  9  1  0  0  0  0
  9 10  1  0  0  0  0
 10 11  1  0  0  0  0
 11 12  1  0  0  0  0
 12 13  1  0  0  0  0
M  END
> <Index>
6023

> <PropertyFieldDistance>
nan

$$$$
4510202
BBcorina  12272117083D 1   1.00000     0.00000 
CORINA 4.3.0 0026  30.10.2019
 15 15  0  0  0  0  0  0  0  0999 V2000
  -36.0665   -1.2735  -48.1520 C   0  0  0  0  0  0  0  0  0  0  0  0
  -35.6810    0.0619  -47.6890 N   0  0  0  0  0  0  0  0  0  0  0  0
  -34.7370    0.8642  -48.4708 C   0  0  0  0  0  0  0  0  0  0  0  0
  -36.1951    0.5524  -46.5437 C   0  0  0  0  0  0  0  0  0  0  0  0
  -36.9766   -0.1118  -45.8964 O   0  0  0  0  0  0  0  0  0  0  0  0
  -35.7986    1.9261  -46.0674 C   0  0  0  0  0  0  0  0  0  0  0  0
  -36.5188    2.2380  -44.7539 C   0  0  0  0  0  0  0  0  0  0  0  0
  -36.1324    3.5770  -44.2897 N   0  0  0  0  0  0  0  0  0  0  0  0
  -36.9749    4.0081  -43.1668 C   0  0  0  0  0  0  0  0  0  0  0  0
  -36.6429    5.4576  -42.8054 C   0  0  0  0  0  0  0  0  0  0  0  0
  -35.1630    5.5577  -42.4252 C   0  0  0  0  0  0  0  0  0  0  0  0
  -34.3091    5.0575  -43.5937 C   0  0  0  0  0  0  0  0  0  0  0  0
  -34.7087    3.6195  -43.9322 C   0  0  0  0  0  0  0  0  0  0  0  0
  -34.8246    6.9572  -42.1338 N   0  0  0  0  0  0  0  0  0  0  0  0
  -35.2109    7.9695  -43.4567 X   0  0  0  0  0  0  0  0  0  0  0  0
  1  2  1  0  0  0  0
  2  3  1  0  0  0  0
  2  4  1  0  0  0  0
  4  5  2  0  0  0  0
  4  6  1  0  0  0  0
  6  7  1  0  0  0  0
  7  8  1  0  0  0  0
  8  9  1  0  0  0  0
  8 13  1  0  0  0  0
  9 10  1  0  0  0  0
 10 11  1  0  0  0  0
 11 12  1  0  0  0  0
 11 14  1  0  0  0  0
 12 13  1  0  0  0  0
 14 15  1  0  0  0  0
M  END
> <Index>
6040

> <PropertyFieldDistance>
nan

$$$$
4556958
BBcorina  12272117083D 1   1.00000     0.00000 
CORINA 4.3.0 0026  30.10.2019
 14 14  0  0  0  0  0  0  0  0999 V2000
  -35.3137    0.4567  -47.9284 C   0  0  0  0  0  0  0  0  0  0  0  0
  -36.0051    0.7526  -46.6712 N   0  0  0  0  0  0  0  0  0  0  0  0
  -36.9149   -0.2349  -46.0855 C   0  0  0  0  0  0  0  0  0  0  0  0
  -35.8041    1.9335  -46.0534 C   0  0  0  0  0  0  0  0  0  0  0  0
  -35.0508    2.7511  -46.5382 O   0  0  0  0  0  0  0  0  0  0  0  0
  -36.5153    2.2379  -44.7601 C   0  0  0  0  0  0  0  0  0  0  0  0
  -36.1304    3.5765  -44.2930 N   0  0  0  0  0  0  0  0  0  0  0  0
  -36.9747    4.0050  -43.1705 C   0  0  0  0  0  0  0  0  0  0  0  0
  -36.6444    5.4542  -42.8061 C   0  0  0  0  0  0  0  0  0  0  0  0
  -35.1650    5.5549  -42.4241 C   0  0  0  0  0  0  0  0  0  0  0  0
  -34.3093    5.0572  -43.5922 C   0  0  0  0  0  0  0  0  0  0  0  0
  -34.7073    3.6195  -43.9337 C   0  0  0  0  0  0  0  0  0  0  0  0
  -34.8281    6.9540  -42.1298 N   0  0  0  0  0  0  0  0  0  0  0  0
  -35.2135    7.9683  -43.4514 X   0  0  0  0  0  0  0  0  0  0  0  0
  1  2  1  0  0  0  0
  2  3  1  0  0  0  0
  2  4  1  0  0  0  0
  4  5  2  0  0  0  0
  4  6  1  0  0  0  0
  6  7  1  0  0  0  0
  7  8  1  0  0  0  0
  7 12  1  0  0  0  0
  8  9  1  0  0  0  0
  9 10  1  0  0  0  0
 10 11  1  0  0  0  0
 10 13  1  0  0  0  0
 11 12  1  0  0  0  0
 13 14  1  0  0  0  0
M  END
> <Index>
6041

> <PropertyFieldDistance>
nan

$$$$
4556170
BBcorina  12272117083D 1   1.00000     0.00000 
CORINA 4.3.0 0026  30.10.2019
 14 14  0  0  0  0  0  0  0  0999 V2000
  -34.7946   -0.3622  -47.4917 C   0  0  0  0  0  0  0  0  0  0  0  0
  -36.2623    0.5389  -46.9223 S   0  0  0  0  0  0  0  0  0  0  0  0
  -37.1416   -0.3813  -46.2902 O   0  0  0  0  0  0  0  0  0  0  0  0
  -36.7468    1.3376  -47.9930 O   0  0  0  0  0  0  0  0  0  0  0  0
  -35.5626    1.6328  -45.6558 C   0  0  0  0  0  0  0  0  0  0  0  0
  -36.6762    2.4890  -45.0496 C   0  0  0  0  0  0  0  0  0  0  0  0
  -36.1095    3.3749  -44.0239 N   0  0  0  0  0  0  0  0  0  0  0  0
  -37.0947    4.3727  -43.5877 C   0  0  0  0  0  0  0  0  0  0  0  0
  -36.5217    5.1812  -42.4215 C   0  0  0  0  0  0  0  0  0  0  0  0
  -35.2318    5.8729  -42.8712 C   0  0  0  0  0  0  0  0  0  0  0  0
  -34.2409    4.8156  -43.3659 C   0  0  0  0  0  0  0  0  0  0  0  0
  -34.8799    4.0176  -44.5048 C   0  0  0  0  0  0  0  0  0  0  0  0
  -34.6468    6.6045  -41.7396 N   0  0  0  0  0  0  0  0  0  0  0  0
  -34.1782    5.5321  -40.4929 X   0  0  0  0  0  0  0  0  0  0  0  0
  1  2  1  0  0  0  0
  2  3  2  0  0  0  0
  2  4  2  0  0  0  0
  2  5  1  0  0  0  0
  5  6  1  0  0  0  0
  6  7  1  0  0  0  0
  7  8  1  0  0  0  0
  7 12  1  0  0  0  0
  8  9  1  0  0  0  0
  9 10  1  0  0  0  0
 10 11  1  0  0  0  0
 10 13  1  0  0  0  0
 11 12  1  0  0  0  0
 13 14  1  0  0  0  0
M  END
> <Index>
6042

> <PropertyFieldDistance>
nan

$$$$
4289028
BBcorina  12272117083D 1   1.00000     0.00000 
CORINA 4.3.0 0026  30.10.2019
  9  9  0  0  0  0  0  0  0  0999 V2000
  -36.3099    2.2197  -44.9581 C   0  0  0  0  0  0  0  0  0  0  0  0
  -36.0452    3.4349  -44.1840 N   0  0  0  0  0  0  0  0  0  0  0  0
  -37.0871    4.3196  -43.6494 C   0  0  0  0  0  0  0  0  0  0  0  0
  -36.3861    5.1797  -42.5746 C   0  0  0  0  0  0  0  0  0  0  0  0
  -34.9180    5.1552  -43.0595 C   0  0  0  0  0  0  0  0  0  0  0  0
  -34.8169    3.8833  -43.8723 C   0  0  0  0  0  0  0  0  0  0  0  0
  -33.7786    3.3465  -44.1960 O   0  0  0  0  0  0  0  0  0  0  0  0
  -36.9154    6.5500  -42.5703 N   0  0  0  0  0  0  0  0  0  0  0  0
  -36.7747    7.2662  -44.1167 X   0  0  0  0  0  0  0  0  0  0  0  0
  1  2  1  0  0  0  0
  2  3  1  0  0  0  0
  2  6  1  0  0  0  0
  3  4  1  0  0  0  0
  4  5  1  0  0  0  0
  4  8  1  0  0  0  0
  5  6  1  0  0  0  0
  6  7  2  0  0  0  0
  8  9  1  0  0  0  0
M  END
> <Index>
6046

> <PropertyFieldDistance>
nan

$$$$
5055394
BBcorina  12272117083D 1   1.00000     0.00000 
CORINA 4.3.0 0026  30.10.2019
 16 17  0  0  0  0  0  0  0  0999 V2000
  -36.9269    3.5876  -47.0577 C   0  0  0  0  0  0  0  0  0  0  0  0
  -36.7726    2.3318  -46.2390 C   0  0  0  0  0  0  0  0  0  0  0  0
  -37.0599    1.1024  -46.7989 C   0  0  0  0  0  0  0  0  0  0  0  0
  -36.9234   -0.0515  -46.0454 C   0  0  0  0  0  0  0  0  0  0  0  0
  -37.2095   -1.2527  -46.5936 F   0  0  0  0  0  0  0  0  0  0  0  0
  -36.4938    0.0240  -44.7315 C   0  0  0  0  0  0  0  0  0  0  0  0
  -36.1998    1.2511  -44.1692 C   0  0  0  0  0  0  0  0  0  0  0  0
  -36.3360    2.4094  -44.9228 C   0  0  0  0  0  0  0  0  0  0  0  0
  -36.0395    3.6526  -44.3556 N   0  0  0  0  0  0  0  0  0  0  0  0
  -36.9539    3.9571  -43.2478 C   0  0  0  0  0  0  0  0  0  0  0  0
  -36.6957    5.3803  -42.7480 C   0  0  0  0  0  0  0  0  0  0  0  0
  -35.2420    5.4962  -42.2811 C   0  0  0  0  0  0  0  0  0  0  0  0
  -34.3112    5.1271  -43.4396 C   0  0  0  0  0  0  0  0  0  0  0  0
  -34.6385    3.7113  -43.9193 C   0  0  0  0  0  0  0  0  0  0  0  0
  -32.9158    5.1801  -42.9835 N   0  0  0  0  0  0  0  0  0  0  0  0
  -32.6238    4.0133  -41.7679 X   0  0  0  0  0  0  0  0  0  0  0  0
  1  2  1  0  0  0  0
  2  3  2  0  0  0  0
  2  8  1  0  0  0  0
  3  4  1  0  0  0  0
  4  5  1  0  0  0  0
  4  6  2  0  0  0  0
  6  7  1  0  0  0  0
  7  8  2  0  0  0  0
  8  9  1  0  0  0  0
  9 10  1  0  0  0  0
  9 14  1  0  0  0  0
 10 11  1  0  0  0  0
 11 12  1  0  0  0  0
 12 13  1  0  0  0  0
 13 14  1  0  0  0  0
 13 15  1  0  0  0  0
 15 16  1  0  0  0  0
M  END
> <Index>
6069

> <PropertyFieldDistance>
nan

$$$$
4995380
BBcorina  12272117083D 1   1.00000     0.00000 
CORINA 4.3.0 0026  30.10.2019
 15 16  0  0  0  0  0  0  0  0999 V2000
  -34.6952   -0.7474  -45.6560 F   0  0  0  0  0  0  0  0  0  0  0  0
  -35.6499    0.2045  -45.5707 C   0  0  0  0  0  0  0  0  0  0  0  0
  -36.9259   -0.0503  -46.0454 C   0  0  0  0  0  0  0  0  0  0  0  0
  -37.9051    0.9222  -45.9599 C   0  0  0  0  0  0  0  0  0  0  0  0
  -37.6142    2.1506  -45.4002 C   0  0  0  0  0  0  0  0  0  0  0  0
  -36.3356    2.4105  -44.9223 C   0  0  0  0  0  0  0  0  0  0  0  0
  -35.3514    1.4354  -45.0141 C   0  0  0  0  0  0  0  0  0  0  0  0
  -36.0395    3.6523  -44.3558 N   0  0  0  0  0  0  0  0  0  0  0  0
  -36.9539    3.9568  -43.2478 C   0  0  0  0  0  0  0  0  0  0  0  0
  -36.6957    5.3801  -42.7481 C   0  0  0  0  0  0  0  0  0  0  0  0
  -35.2420    5.4969  -42.2815 C   0  0  0  0  0  0  0  0  0  0  0  0
  -34.3113    5.1269  -43.4396 C   0  0  0  0  0  0  0  0  0  0  0  0
  -34.6386    3.7111  -43.9194 C   0  0  0  0  0  0  0  0  0  0  0  0
  -32.9158    5.1799  -42.9835 N   0  0  0  0  0  0  0  0  0  0  0  0
  -32.6232    4.0117  -41.7695 X   0  0  0  0  0  0  0  0  0  0  0  0
  1  2  1  0  0  0  0
  2  3  2  0  0  0  0
  2  7  1  0  0  0  0
  3  4  1  0  0  0  0
  4  5  2  0  0  0  0
  5  6  1  0  0  0  0
  6  7  2  0  0  0  0
  6  8  1  0  0  0  0
  8  9  1  0  0  0  0
  8 13  1  0  0  0  0
  9 10  1  0  0  0  0
 10 11  1  0  0  0  0
 11 12  1  0  0  0  0
 12 13  1  0  0  0  0
 12 14  1  0  0  0  0
 14 15  1  0  0  0  0
M  END
> <Index>
6076

> <PropertyFieldDistance>
nan

$$$$
5055268
BBcorina  12272117083D 1   1.00000     0.00000 
CORINA 4.3.0 0026  30.10.2019
 16 17  0  0  0  0  0  0  0  0999 V2000
  -39.3800   -0.6317  -46.9954 C   0  0  0  0  0  0  0  0  0  0  0  0
  -39.1525    0.6605  -46.4292 O   0  0  0  0  0  0  0  0  0  0  0  0
  -37.9029    0.9174  -45.9607 C   0  0  0  0  0  0  0  0  0  0  0  0
  -36.9165   -0.0551  -46.0445 C   0  0  0  0  0  0  0  0  0  0  0  0
  -35.6451    0.2047  -45.5688 C   0  0  0  0  0  0  0  0  0  0  0  0
  -35.3517    1.4328  -45.0089 C   0  0  0  0  0  0  0  0  0  0  0  0
  -36.3356    2.4105  -44.9223 C   0  0  0  0  0  0  0  0  0  0  0  0
  -37.6144    2.1493  -45.3943 C   0  0  0  0  0  0  0  0  0  0  0  0
  -36.0395    3.6523  -44.3558 N   0  0  0  0  0  0  0  0  0  0  0  0
  -36.9539    3.9568  -43.2478 C   0  0  0  0  0  0  0  0  0  0  0  0
  -36.6957    5.3801  -42.7481 C   0  0  0  0  0  0  0  0  0  0  0  0
  -35.2420    5.4969  -42.2815 C   0  0  0  0  0  0  0  0  0  0  0  0
  -34.3113    5.1269  -43.4396 C   0  0  0  0  0  0  0  0  0  0  0  0
  -34.6386    3.7111  -43.9194 C   0  0  0  0  0  0  0  0  0  0  0  0
  -32.9158    5.1799  -42.9835 N   0  0  0  0  0  0  0  0  0  0  0  0
  -32.6232    4.0117  -41.7695 X   0  0  0  0  0  0  0  0  0  0  0  0
  1  2  1  0  0  0  0
  2  3  1  0  0  0  0
  3  4  2  0  0  0  0
  3  8  1  0  0  0  0
  4  5  1  0  0  0  0
  5  6  2  0  0  0  0
  6  7  1  0  0  0  0
  7  8  2  0  0  0  0
  7  9  1  0  0  0  0
  9 10  1  0  0  0  0
  9 14  1  0  0  0  0
 10 11  1  0  0  0  0
 11 12  1  0  0  0  0
 12 13  1  0  0  0  0
 13 14  1  0  0  0  0
 13 15  1  0  0  0  0
 15 16  1  0  0  0  0
M  END
> <Index>
6077

> <PropertyFieldDistance>
nan

$$$$
5055310
BBcorina  12272117083D 1   1.00000     0.00000 
CORINA 4.3.0 0026  30.10.2019
 16 17  0  0  0  0  0  0  0  0999 V2000
  -39.1714    0.7530  -46.7941 C   0  0  0  0  0  0  0  0  0  0  0  0
  -37.8463    0.9751  -46.1118 C   0  0  0  0  0  0  0  0  0  0  0  0
  -36.9230   -0.0517  -46.0467 C   0  0  0  0  0  0  0  0  0  0  0  0
  -35.7054    0.1471  -45.4211 C   0  0  0  0  0  0  0  0  0  0  0  0
  -35.4062    1.3761  -44.8632 C   0  0  0  0  0  0  0  0  0  0  0  0
  -34.2149    1.5720  -44.2571 F   0  0  0  0  0  0  0  0  0  0  0  0
  -36.3360    2.4092  -44.9229 C   0  0  0  0  0  0  0  0  0  0  0  0
  -37.5562    2.2047  -45.5517 C   0  0  0  0  0  0  0  0  0  0  0  0
  -36.0394    3.6526  -44.3557 N   0  0  0  0  0  0  0  0  0  0  0  0
  -36.9538    3.9571  -43.2478 C   0  0  0  0  0  0  0  0  0  0  0  0
  -36.6957    5.3803  -42.7479 C   0  0  0  0  0  0  0  0  0  0  0  0
  -35.2420    5.4963  -42.2811 C   0  0  0  0  0  0  0  0  0  0  0  0
  -34.3112    5.1271  -43.4396 C   0  0  0  0  0  0  0  0  0  0  0  0
  -34.6385    3.7113  -43.9193 C   0  0  0  0  0  0  0  0  0  0  0  0
  -32.9158    5.1801  -42.9835 N   0  0  0  0  0  0  0  0  0  0  0  0
  -32.6237    4.0135  -41.7679 X   0  0  0  0  0  0  0  0  0  0  0  0
  1  2  1  0  0  0  0
  2  3  2  0  0  0  0
  2  8  1  0  0  0  0
  3  4  1  0  0  0  0
  4  5  2  0  0  0  0
  5  6  1  0  0  0  0
  5  7  1  0  0  0  0
  7  8  2  0  0  0  0
  7  9  1  0  0  0  0
  9 10  1  0  0  0  0
  9 14  1  0  0  0  0
 10 11  1  0  0  0  0
 11 12  1  0  0  0  0
 12 13  1  0  0  0  0
 13 14  1  0  0  0  0
 13 15  1  0  0  0  0
 15 16  1  0  0  0  0
M  END
> <Index>
6078

> <PropertyFieldDistance>
nan

$$$$
10427758
BBcorina  12272117083D 1   1.00000     0.00000 
CORINA 4.3.0 0026  30.10.2019
 11 12  0  0  0  0  0  0  0  0999 V2000
  -36.8164    6.8384  -39.5981 F   0  0  0  0  0  0  0  0  0  0  0  0
  -36.5830    6.9166  -40.9753 C   0  0  0  0  0  0  0  0  0  0  0  0
  -37.5285    5.9528  -41.7381 C   0  0  0  0  0  0  0  0  0  0  0  0
  -36.5823    4.9395  -42.3884 C   0  0  0  0  0  0  0  0  0  0  0  0
  -37.0377    4.4373  -43.7506 C   0  0  0  0  0  0  0  0  0  0  0  0
  -35.9792    3.5475  -44.2689 N   0  0  0  0  0  0  0  0  0  0  0  0
  -34.6664    4.1953  -44.3457 C   0  0  0  0  0  0  0  0  0  0  0  0
  -34.2671    4.7952  -42.9881 C   0  0  0  0  0  0  0  0  0  0  0  0
  -35.3250    5.7117  -42.5858 N   0  0  0  0  0  0  0  0  0  0  0  0
  -35.1507    6.4187  -41.3094 C   0  0  0  0  0  0  0  0  0  0  0  0
  -36.4241    2.8833  -45.7806 X   0  0  0  0  0  0  0  0  0  0  0  0
  1  2  1  0  0  0  0
  2  3  1  0  0  0  0
  2 10  1  0  0  0  0
  3  4  1  0  0  0  0
  4  5  1  0  0  0  0
  4  9  1  0  0  0  0
  5  6  1  0  0  0  0
  6  7  1  0  0  0  0
  6 11  1  0  0  0  0
  7  8  1  0  0  0  0
  8  9  1  0  0  0  0
  9 10  1  0  0  0  0
M  END
> <Index>
6081

> <PropertyFieldDistance>
nan

$$$$
11560616
BBcorina  12272117083D 1   1.00000     0.00000 
CORINA 4.3.0 0026  30.10.2019
 12 13  0  0  0  0  0  0  0  0999 V2000
  -36.8153    6.8356  -39.5958 F   0  0  0  0  0  0  0  0  0  0  0  0
  -36.5851    6.9137  -40.9736 C   0  0  0  0  0  0  0  0  0  0  0  0
  -36.7651    8.2264  -41.4224 F   0  0  0  0  0  0  0  0  0  0  0  0
  -37.5317    5.9493  -41.7340 C   0  0  0  0  0  0  0  0  0  0  0  0
  -36.5823    4.9359  -42.3857 C   0  0  0  0  0  0  0  0  0  0  0  0
  -37.0316    4.4431  -43.7533 C   0  0  0  0  0  0  0  0  0  0  0  0
  -35.9797    3.5439  -44.2664 N   0  0  0  0  0  0  0  0  0  0  0  0
  -34.6687    4.1951  -44.3461 C   0  0  0  0  0  0  0  0  0  0  0  0
  -34.2680    4.7971  -42.9899 C   0  0  0  0  0  0  0  0  0  0  0  0
  -35.3273    5.7113  -42.5861 N   0  0  0  0  0  0  0  0  0  0  0  0
  -35.1522    6.4194  -41.3105 C   0  0  0  0  0  0  0  0  0  0  0  0
  -36.4260    2.8776  -45.7766 X   0  0  0  0  0  0  0  0  0  0  0  0
  1  2  1  0  0  0  0
  2  3  1  0  0  0  0
  2  4  1  0  0  0  0
  2 11  1  0  0  0  0
  4  5  1  0  0  0  0
  5  6  1  0  0  0  0
  5 10  1  0  0  0  0
  6  7  1  0  0  0  0
  7  8  1  0  0  0  0
  7 12  1  0  0  0  0
  8  9  1  0  0  0  0
  9 10  1  0  0  0  0
 10 11  1  0  0  0  0
M  END
> <Index>
6082

> <PropertyFieldDistance>
nan

$$$$
4833826
BBcorina  12272117083D 1   1.00000     0.00000 
CORINA 4.3.0 0026  30.10.2019
 11 11  0  0  0  0  0  0  0  0999 V2000
  -36.7191    1.1731  -48.3291 C   0  0  0  0  0  0  0  0  0  0  0  0
  -36.5200    0.9526  -46.8904 N   0  0  0  0  0  0  0  0  0  0  0  0
  -36.3430    2.2273  -46.1821 C   0  0  0  0  0  0  0  0  0  0  0  0
  -36.1389    1.9574  -44.6899 C   0  0  0  0  0  0  0  0  0  0  0  0
  -35.9623    3.2285  -43.9834 N   0  0  0  0  0  0  0  0  0  0  0  0
  -37.0595    4.0155  -43.4079 C   0  0  0  0  0  0  0  0  0  0  0  0
  -36.4778    5.4273  -43.1734 C   0  0  0  0  0  0  0  0  0  0  0  0
  -34.9683    5.1259  -43.0262 C   0  0  0  0  0  0  0  0  0  0  0  0
  -34.7743    3.8273  -43.7776 C   0  0  0  0  0  0  0  0  0  0  0  0
  -33.7038    3.3890  -44.1424 O   0  0  0  0  0  0  0  0  0  0  0  0
  -35.1977   -0.0942  -46.6081 X   0  0  0  0  0  0  0  0  0  0  0  0
  1  2  1  0  0  0  0
  2  3  1  0  0  0  0
  2 11  1  0  0  0  0
  3  4  1  0  0  0  0
  4  5  1  0  0  0  0
  5  6  1  0  0  0  0
  5  9  1  0  0  0  0
  6  7  1  0  0  0  0
  7  8  1  0  0  0  0
  8  9  1  0  0  0  0
  9 10  2  0  0  0  0
M  END
> <Index>
6083

> <PropertyFieldDistance>
nan

$$$$
6338474
BBcorina  12272117083D 1   1.00000     0.00000 
CORINA 4.3.0 0026  30.10.2019
  7  7  0  0  0  0  0  0  0  0999 V2000
  -38.4204    3.9977  -43.8133 C   0  0  0  0  0  0  0  0  0  0  0  0
  -36.9946    4.5502  -43.8666 C   0  0  0  0  0  0  0  0  0  0  0  0
  -36.4718    4.8295  -42.4412 C   0  0  0  0  0  0  0  0  0  0  0  0
  -34.9804    4.4370  -42.4773 C   0  0  0  0  0  0  0  0  0  0  0  0
  -34.7276    3.9536  -43.9215 C   0  0  0  0  0  0  0  0  0  0  0  0
  -36.0637    3.5298  -44.4136 N   0  0  0  0  0  0  0  0  0  0  0  0
  -36.1098    3.5118  -46.1229 X   0  0  0  0  0  0  0  0  0  0  0  0
  1  2  1  0  0  0  0
  2  3  1  0  0  0  0
  2  6  1  0  0  0  0
  3  4  1  0  0  0  0
  4  5  1  0  0  0  0
  5  6  1  0  0  0  0
  6  7  1  0  0  0  0
M  END
> <Index>
6112

> <PropertyFieldDistance>
nan

$$$$
4644078
BBcorina  12272117083D 1   1.00000     0.00000 
CORINA 4.3.0 0026  30.10.2019
 14 15  0  0  0  0  0  0  0  0999 V2000
  -36.3425    2.8094  -47.4489 Br  0  0  0  0  0  0  0  0  0  0  0  0
  -36.5061    1.7194  -45.9123 C   0  0  0  0  0  0  0  0  0  0  0  0
  -36.7963    0.3753  -46.0454 C   0  0  0  0  0  0  0  0  0  0  0  0
  -36.9103   -0.4235  -44.9220 C   0  0  0  0  0  0  0  0  0  0  0  0
  -36.7457    0.1221  -43.6624 C   0  0  0  0  0  0  0  0  0  0  0  0
  -36.4610    1.4666  -43.5216 C   0  0  0  0  0  0  0  0  0  0  0  0
  -36.3402    2.2708  -44.6471 C   0  0  0  0  0  0  0  0  0  0  0  0
  -36.0517    3.6309  -44.5082 N   0  0  0  0  0  0  0  0  0  0  0  0
  -37.0978    4.3157  -43.7266 C   0  0  0  0  0  0  0  0  0  0  0  0
  -36.4031    4.9892  -42.5244 C   0  0  0  0  0  0  0  0  0  0  0  0
  -34.9333    5.1258  -43.0018 C   0  0  0  0  0  0  0  0  0  0  0  0
  -34.7523    3.8307  -43.8321 C   0  0  0  0  0  0  0  0  0  0  0  0
  -34.0095    5.1532  -41.8599 N   0  0  0  0  0  0  0  0  0  0  0  0
  -34.0818    3.6899  -40.9780 X   0  0  0  0  0  0  0  0  0  0  0  0
  1  2  1  0  0  0  0
  2  3  2  0  0  0  0
  2  7  1  0  0  0  0
  3  4  1  0  0  0  0
  4  5  2  0  0  0  0
  5  6  1  0  0  0  0
  6  7  2  0  0  0  0
  7  8  1  0  0  0  0
  8  9  1  0  0  0  0
  8 12  1  0  0  0  0
  9 10  1  0  0  0  0
 10 11  1  0  0  0  0
 11 12  1  0  0  0  0
 11 13  1  0  0  0  0
 13 14  1  0  0  0  0
M  END
> <Index>
6119

> <PropertyFieldDistance>
nan

$$$$
4555858
BBcorina  12272117083D 1   1.00000     0.00000 
CORINA 4.3.0 0026  30.10.2019
 15 15  0  0  0  0  0  0  0  0999 V2000
  -34.3285    7.4449  -41.3858 C   0  0  0  0  0  0  0  0  0  0  0  0
  -35.4727    6.5238  -41.3726 N   0  0  0  0  0  0  0  0  0  0  0  0
  -36.7095    7.2259  -41.0047 C   0  0  0  0  0  0  0  0  0  0  0  0
  -35.6177    5.8457  -42.6677 C   0  0  0  0  0  0  0  0  0  0  0  0
  -36.8157    4.8936  -42.6154 C   0  0  0  0  0  0  0  0  0  0  0  0
  -36.9258    4.1466  -43.9466 C   0  0  0  0  0  0  0  0  0  0  0  0
  -35.6893    3.3932  -44.1904 N   0  0  0  0  0  0  0  0  0  0  0  0
  -34.5316    4.2910  -44.2916 C   0  0  0  0  0  0  0  0  0  0  0  0
  -34.3499    5.0422  -42.9707 C   0  0  0  0  0  0  0  0  0  0  0  0
  -35.8115    2.5545  -45.3902 C   0  0  0  0  0  0  0  0  0  0  0  0
  -36.9617    1.5628  -45.2042 C   0  0  0  0  0  0  0  0  0  0  0  0
  -36.0937    3.4406  -46.6052 C   0  0  0  0  0  0  0  0  0  0  0  0
  -34.5067    1.7867  -45.6109 C   0  0  0  0  0  0  0  0  0  0  0  0
  -34.2358    0.9358  -44.4444 N   0  0  0  0  0  0  0  0  0  0  0  0
  -32.7828    0.0581  -44.6503 X   0  0  0  0  0  0  0  0  0  0  0  0
  1  2  1  0  0  0  0
  2  3  1  0  0  0  0
  2  4  1  0  0  0  0
  4  5  1  0  0  0  0
  4  9  1  0  0  0  0
  5  6  1  0  0  0  0
  6  7  1  0  0  0  0
  7  8  1  0  0  0  0
  7 10  1  0  0  0  0
  8  9  1  0  0  0  0
 10 11  1  0  0  0  0
 10 12  1  0  0  0  0
 10 13  1  0  0  0  0
 13 14  1  0  0  0  0
 14 15  1  0  0  0  0
M  END
> <Index>
6124

> <PropertyFieldDistance>
nan

$$$$
4600354
BBcorina  12272117083D 1   1.00000     0.00000 
CORINA 4.3.0 0026  30.10.2019
 14 14  0  0  0  0  0  0  0  0999 V2000
  -32.3737    6.4980  -42.9797 C   0  0  0  0  0  0  0  0  0  0  0  0
  -32.8234    5.0557  -43.2215 C   0  0  0  0  0  0  0  0  0  0  0  0
  -34.3062    5.0400  -43.5981 C   0  0  0  0  0  0  0  0  0  0  0  0
  -35.1406    5.5257  -42.4097 C   0  0  0  0  0  0  0  0  0  0  0  0
  -36.6258    5.4501  -42.7744 C   0  0  0  0  0  0  0  0  0  0  0  0
  -36.9786    4.0121  -43.1611 C   0  0  0  0  0  0  0  0  0  0  0  0
  -36.1542    3.5947  -44.3024 N   0  0  0  0  0  0  0  0  0  0  0  0
  -34.7261    3.6139  -43.9612 C   0  0  0  0  0  0  0  0  0  0  0  0
  -36.5614    2.2700  -44.7894 C   0  0  0  0  0  0  0  0  0  0  0  0
  -35.7331    1.9030  -46.0224 C   0  0  0  0  0  0  0  0  0  0  0  0
  -36.3300    1.2297  -43.6916 C   0  0  0  0  0  0  0  0  0  0  0  0
  -38.0452    2.2972  -45.1615 C   0  0  0  0  0  0  0  0  0  0  0  0
  -38.2903    3.3848  -46.1181 N   0  0  0  0  0  0  0  0  0  0  0  0
  -39.9404    3.4509  -46.5614 X   0  0  0  0  0  0  0  0  0  0  0  0
  1  2  1  0  0  0  0
  2  3  1  0  0  0  0
  3  4  1  0  0  0  0
  3  8  1  0  0  0  0
  4  5  1  0  0  0  0
  5  6  1  0  0  0  0
  6  7  1  0  0  0  0
  7  8  1  0  0  0  0
  7  9  1  0  0  0  0
  9 10  1  0  0  0  0
  9 11  1  0  0  0  0
  9 12  1  0  0  0  0
 12 13  1  0  0  0  0
 13 14  1  0  0  0  0
M  END
> <Index>
6125

> <PropertyFieldDistance>
nan

$$$$
4556990
BBcorina  12272117083D 1   1.00000     0.00000 
CORINA 4.3.0 0026  30.10.2019
 16 17  0  0  0  0  0  0  0  0999 V2000
  -36.1477    1.1148  -47.1279 C   0  0  0  0  0  0  0  0  0  0  0  0
  -35.5923    1.7940  -45.8743 C   0  0  0  0  0  0  0  0  0  0  0  0
  -36.6878    2.6433  -45.2266 C   0  0  0  0  0  0  0  0  0  0  0  0
  -36.1546    3.2953  -44.0231 N   0  0  0  0  0  0  0  0  0  0  0  0
  -37.0955    4.2995  -43.5075 C   0  0  0  0  0  0  0  0  0  0  0  0
  -36.5403    4.8974  -42.2127 C   0  0  0  0  0  0  0  0  0  0  0  0
  -35.2259    5.4987  -42.4780 N   0  0  0  0  0  0  0  0  0  0  0  0
  -34.2850    4.4945  -42.9935 C   0  0  0  0  0  0  0  0  0  0  0  0
  -34.8402    3.8965  -44.2884 C   0  0  0  0  0  0  0  0  0  0  0  0
  -34.6927    6.1508  -41.2744 C   0  0  0  0  0  0  0  0  0  0  0  0
  -33.2751    6.6582  -41.5528 C   0  0  0  0  0  0  0  0  0  0  0  0
  -32.7483    7.3896  -40.3161 C   0  0  0  0  0  0  0  0  0  0  0  0
  -33.6361    8.5146  -39.9959 N   0  0  0  0  0  0  0  0  0  0  0  0
  -34.9917    8.0476  -39.6786 C   0  0  0  0  0  0  0  0  0  0  0  0
  -35.5864    7.3349  -40.8954 C   0  0  0  0  0  0  0  0  0  0  0  0
  -32.9973    9.4551  -38.7185 X   0  0  0  0  0  0  0  0  0  0  0  0
  1  2  1  0  0  0  0
  2  3  1  0  0  0  0
  3  4  1  0  0  0  0
  4  5  1  0  0  0  0
  4  9  1  0  0  0  0
  5  6  1  0  0  0  0
  6  7  1  0  0  0  0
  7  8  1  0  0  0  0
  7 10  1  0  0  0  0
  8  9  1  0  0  0  0
 10 11  1  0  0  0  0
 10 15  1  0  0  0  0
 11 12  1  0  0  0  0
 12 13  1  0  0  0  0
 13 14  1  0  0  0  0
 13 16  1  0  0  0  0
 14 15  1  0  0  0  0
M  END
> <Index>
6126

> <PropertyFieldDistance>
nan

$$$$
4821584
BBcorina  12272117083D 1   1.00000     0.00000 
CORINA 4.3.0 0026  30.10.2019
 16 17  0  0  0  0  0  0  0  0999 V2000
  -36.2011    0.5314  -46.5510 C   0  0  0  0  0  0  0  0  0  0  0  0
  -35.7986    1.9261  -46.0673 C   0  0  0  0  0  0  0  0  0  0  0  0
  -36.5188    2.2380  -44.7540 C   0  0  0  0  0  0  0  0  0  0  0  0
  -36.1324    3.5770  -44.2896 N   0  0  0  0  0  0  0  0  0  0  0  0
  -36.9749    4.0081  -43.1668 C   0  0  0  0  0  0  0  0  0  0  0  0
  -36.6429    5.4577  -42.8054 C   0  0  0  0  0  0  0  0  0  0  0  0
  -35.1631    5.5577  -42.4253 C   0  0  0  0  0  0  0  0  0  0  0  0
  -34.3091    5.0575  -43.5937 C   0  0  0  0  0  0  0  0  0  0  0  0
  -34.7087    3.6195  -43.9322 C   0  0  0  0  0  0  0  0  0  0  0  0
  -34.8247    6.9571  -42.1338 N   0  0  0  0  0  0  0  0  0  0  0  0
  -33.4419    7.0749  -41.6504 C   0  0  0  0  0  0  0  0  0  0  0  0
  -33.1037    8.5519  -41.4346 C   0  0  0  0  0  0  0  0  0  0  0  0
  -34.0473    9.1317  -40.4687 N   0  0  0  0  0  0  0  0  0  0  0  0
  -35.4302    9.0139  -40.9519 C   0  0  0  0  0  0  0  0  0  0  0  0
  -35.7683    7.5370  -41.1677 C   0  0  0  0  0  0  0  0  0  0  0  0
  -33.6534   10.7607  -40.1293 X   0  0  0  0  0  0  0  0  0  0  0  0
  1  2  1  0  0  0  0
  2  3  1  0  0  0  0
  3  4  1  0  0  0  0
  4  5  1  0  0  0  0
  4  9  1  0  0  0  0
  5  6  1  0  0  0  0
  6  7  1  0  0  0  0
  7  8  1  0  0  0  0
  7 10  1  0  0  0  0
  8  9  1  0  0  0  0
 10 11  1  0  0  0  0
 10 15  1  0  0  0  0
 11 12  1  0  0  0  0
 12 13  1  0  0  0  0
 13 14  1  0  0  0  0
 13 16  1  0  0  0  0
 14 15  1  0  0  0  0
M  END
> <Index>
6127

> <PropertyFieldDistance>
nan

$$$$
4556452
BBcorina  12272117083D 1   1.00000     0.00000 
CORINA 4.3.0 0026  30.10.2019
 14 15  0  0  0  0  0  0  0  0999 V2000
  -34.0004    5.0900  -41.9172 N   0  0  0  0  0  0  0  0  0  0  0  0
  -34.9196    5.1410  -43.0620 C   0  0  0  0  0  0  0  0  0  0  0  0
  -36.3876    5.1647  -42.5767 C   0  0  0  0  0  0  0  0  0  0  0  0
  -37.0892    4.3113  -43.6592 C   0  0  0  0  0  0  0  0  0  0  0  0
  -36.0478    3.4243  -44.1910 N   0  0  0  0  0  0  0  0  0  0  0  0
  -34.8193    3.8713  -43.8784 C   0  0  0  0  0  0  0  0  0  0  0  0
  -33.7812    3.3349  -44.2038 O   0  0  0  0  0  0  0  0  0  0  0  0
  -36.3012    2.2656  -44.9332 C   0  0  0  0  0  0  0  0  0  0  0  0
  -35.2491    1.5582  -45.4999 C   0  0  0  0  0  0  0  0  0  0  0  0
  -35.5030    0.4177  -46.2363 C   0  0  0  0  0  0  0  0  0  0  0  0
  -36.8023   -0.0260  -46.4005 C   0  0  0  0  0  0  0  0  0  0  0  0
  -37.8522    0.6758  -45.8371 C   0  0  0  0  0  0  0  0  0  0  0  0
  -37.6055    1.8202  -45.1044 C   0  0  0  0  0  0  0  0  0  0  0  0
  -32.4832    5.7690  -42.3188 X   0  0  0  0  0  0  0  0  0  0  0  0
  1  2  1  0  0  0  0
  1 14  1  0  0  0  0
  2  3  1  0  0  0  0
  2  6  1  0  0  0  0
  3  4  1  0  0  0  0
  4  5  1  0  0  0  0
  5  6  1  0  0  0  0
  5  8  1  0  0  0  0
  6  7  2  0  0  0  0
  8  9  2  0  0  0  0
  8 13  1  0  0  0  0
  9 10  1  0  0  0  0
 10 11  2  0  0  0  0
 11 12  1  0  0  0  0
 12 13  2  0  0  0  0
M  END
> <Index>
6133

> <PropertyFieldDistance>
nan

$$$$
9480218
BBcorina  12272117083D 1   1.00000     0.00000 
CORINA 4.3.0 0026  30.10.2019
  7  7  0  0  0  0  0  0  0  0999 V2000
  -35.1003    5.0410  -43.3934 N   0  0  0  0  0  0  0  0  0  0  0  0
  -35.0861    3.7488  -44.0918 C   0  0  0  0  0  0  0  0  0  0  0  0
  -36.4911    3.1445  -44.0816 C   0  0  0  0  0  0  0  0  0  0  0  0
  -36.4702    1.6076  -44.0901 C   0  0  0  0  0  0  0  0  0  0  0  0
  -34.6937    1.1576  -44.0221 S   0  0  0  0  0  0  0  0  0  0  0  0
  -34.1145    2.7778  -43.3703 C   0  0  0  0  0  0  0  0  0  0  0  0
  -35.4973    4.8409  -41.7422 X   0  0  0  0  0  0  0  0  0  0  0  0
  1  2  1  0  0  0  0
  1  7  1  0  0  0  0
  2  3  1  0  0  0  0
  2  6  1  0  0  0  0
  3  4  1  0  0  0  0
  4  5  1  0  0  0  0
  5  6  1  0  0  0  0
M  END
> <Index>
6143

> <PropertyFieldDistance>
nan

$$$$
10811196
BBcorina  12272117083D 1   1.00000     0.00000 
CORINA 4.3.0 0026  30.10.2019
 10 10  0  0  0  0  0  0  0  0999 V2000
  -38.0197    0.1827  -45.8673 O   0  0  0  0  0  0  0  0  0  0  0  0
  -36.6117    0.2152  -46.1093 C   0  0  0  0  0  0  0  0  0  0  0  0
  -36.3243   -0.3061  -47.5188 C   0  0  0  0  0  0  0  0  0  0  0  0
  -34.8168   -0.2712  -47.7779 C   0  0  0  0  0  0  0  0  0  0  0  0
  -34.3110    1.1674  -47.6532 C   0  0  0  0  0  0  0  0  0  0  0  0
  -34.5984    1.6886  -46.2437 C   0  0  0  0  0  0  0  0  0  0  0  0
  -36.1059    1.6538  -45.9847 C   0  0  0  0  0  0  0  0  0  0  0  0
  -36.3933    2.1751  -44.5752 C   0  0  0  0  0  0  0  0  0  0  0  0
  -36.0173    3.5927  -44.4913 N   0  0  0  0  0  0  0  0  0  0  0  0
  -36.3229    4.2163  -42.9286 X   0  0  0  0  0  0  0  0  0  0  0  0
  1  2  1  0  0  0  0
  2  3  1  0  0  0  0
  2  7  1  0  0  0  0
  3  4  1  0  0  0  0
  4  5  1  0  0  0  0
  5  6  1  0  0  0  0
  6  7  1  0  0  0  0
  7  8  1  0  0  0  0
  8  9  1  0  0  0  0
  9 10  1  0  0  0  0
M  END
> <Index>
6146

> <PropertyFieldDistance>
nan

$$$$
13167328
BBcorina  12272117083D 1   1.00000     0.00000 
CORINA 4.3.0 0026  30.10.2019
 10 11  0  0  0  0  0  0  0  0999 V2000
  -35.9510    3.4793  -44.1369 N   0  0  0  0  0  0  0  0  0  0  0  0
  -36.9586    4.5024  -43.8244 C   0  0  0  0  0  0  0  0  0  0  0  0
  -36.6996    5.0759  -42.4258 C   0  0  0  0  0  0  0  0  0  0  0  0
  -35.2851    5.4601  -42.3423 N   0  0  0  0  0  0  0  0  0  0  0  0
  -34.6923    6.2747  -41.4328 C   0  0  0  0  0  0  0  0  0  0  0  0
  -33.3780    6.3557  -41.7338 C   0  0  0  0  0  0  0  0  0  0  0  0
  -33.1544    5.5563  -42.8748 C   0  0  0  0  0  0  0  0  0  0  0  0
  -34.3330    5.0202  -43.2241 C   0  0  0  0  0  0  0  0  0  0  0  0
  -34.6303    4.0885  -44.3739 C   0  0  0  0  0  0  0  0  0  0  0  0
  -36.4362    2.5293  -45.4733 X   0  0  0  0  0  0  0  0  0  0  0  0
  1  2  1  0  0  0  0
  1  9  1  0  0  0  0
  1 10  1  0  0  0  0
  2  3  1  0  0  0  0
  3  4  1  0  0  0  0
  4  5  1  0  0  0  0
  4  8  1  0  0  0  0
  5  6  2  0  0  0  0
  6  7  1  0  0  0  0
  7  8  2  0  0  0  0
  8  9  1  0  0  0  0
M  END
> <Index>
6153

> <PropertyFieldDistance>
nan

$$$$
6363352
BBcorina  12272117083D 1   1.00000     0.00000 
CORINA 4.3.0 0026  30.10.2019
 14 15  0  0  0  0  0  0  0  0999 V2000
  -36.3350    2.2638  -44.9007 C   0  0  0  0  0  0  0  0  0  0  0  0
  -36.0114    3.4852  -44.1593 N   0  0  0  0  0  0  0  0  0  0  0  0
  -36.9586    4.1174  -43.4328 C   0  0  0  0  0  0  0  0  0  0  0  0
  -38.0801    3.6604  -43.3654 O   0  0  0  0  0  0  0  0  0  0  0  0
  -36.6164    5.3933  -42.7065 C   0  0  0  0  0  0  0  0  0  0  0  0
  -35.2438    5.3652  -42.3066 O   0  0  0  0  0  0  0  0  0  0  0  0
  -34.3395    4.9628  -43.2408 C   0  0  0  0  0  0  0  0  0  0  0  0
  -33.0644    5.4988  -43.2628 C   0  0  0  0  0  0  0  0  0  0  0  0
  -32.1579    5.0863  -44.2227 C   0  0  0  0  0  0  0  0  0  0  0  0
  -32.5256    4.1388  -45.1685 C   0  0  0  0  0  0  0  0  0  0  0  0
  -31.6054    3.7246  -46.1378 N   0  0  0  0  0  0  0  0  0  0  0  0
  -33.8067    3.6020  -45.1535 C   0  0  0  0  0  0  0  0  0  0  0  0
  -34.7138    4.0152  -44.1930 C   0  0  0  0  0  0  0  0  0  0  0  0
  -32.0576    2.5577  -47.3030 X   0  0  0  0  0  0  0  0  0  0  0  0
  1  2  1  0  0  0  0
  2  3  1  0  0  0  0
  2 13  1  0  0  0  0
  3  4  2  0  0  0  0
  3  5  1  0  0  0  0
  5  6  1  0  0  0  0
  6  7  1  0  0  0  0
  7  8  2  0  0  0  0
  7 13  1  0  0  0  0
  8  9  1  0  0  0  0
  9 10  2  0  0  0  0
 10 11  1  0  0  0  0
 10 12  1  0  0  0  0
 11 14  1  0  0  0  0
 12 13  2  0  0  0  0
M  END
> <Index>
6169

> <PropertyFieldDistance>
nan

$$$$
5819610
BBcorina  12272117083D 1   1.00000     0.00000 
CORINA 4.3.0 0026  30.10.2019
 15 15  0  0  0  0  0  0  0  0999 V2000
  -37.5168    5.3476  -41.3611 C   0  0  0  0  0  0  0  0  0  0  0  0
  -36.6668    5.3200  -42.6330 C   0  0  0  0  0  0  0  0  0  0  0  0
  -36.9515    4.0329  -43.4144 C   0  0  0  0  0  0  0  0  0  0  0  0
  -36.0241    3.9380  -44.5497 N   0  0  0  0  0  0  0  0  0  0  0  0
  -34.6313    3.8384  -44.0933 C   0  0  0  0  0  0  0  0  0  0  0  0
  -34.2516    5.1174  -43.3396 C   0  0  0  0  0  0  0  0  0  0  0  0
  -35.2405    5.3431  -42.2745 N   0  0  0  0  0  0  0  0  0  0  0  0
  -34.8503    5.5600  -41.0029 C   0  0  0  0  0  0  0  0  0  0  0  0
  -35.6727    5.8457  -40.1553 O   0  0  0  0  0  0  0  0  0  0  0  0
  -33.5491    5.4601  -40.6717 O   0  0  0  0  0  0  0  0  0  0  0  0
  -33.2013    5.7070  -39.2837 C   0  0  0  0  0  0  0  0  0  0  0  0
  -33.9316    4.7037  -38.3888 C   0  0  0  0  0  0  0  0  0  0  0  0
  -31.6906    5.5486  -39.1005 C   0  0  0  0  0  0  0  0  0  0  0  0
  -33.6153    7.1288  -38.8993 C   0  0  0  0  0  0  0  0  0  0  0  0
  -36.4314    2.6241  -45.5655 X   0  0  0  0  0  0  0  0  0  0  0  0
  1  2  1  0  0  0  0
  2  3  1  0  0  0  0
  2  7  1  0  0  0  0
  3  4  1  0  0  0  0
  4  5  1  0  0  0  0
  4 15  1  0  0  0  0
  5  6  1  0  0  0  0
  6  7  1  0  0  0  0
  7  8  1  0  0  0  0
  8  9  2  0  0  0  0
  8 10  1  0  0  0  0
 10 11  1  0  0  0  0
 11 12  1  0  0  0  0
 11 13  1  0  0  0  0
 11 14  1  0  0  0  0
M  END
> <Index>
6179

> <PropertyFieldDistance>
nan

$$$$
10813568
BBcorina  12272117083D 1   1.00000     0.00000 
CORINA 4.3.0 0026  30.10.2019
 11 11  0  0  0  0  0  0  0  0999 V2000
  -34.8338    6.9191  -42.1417 O   0  0  0  0  0  0  0  0  0  0  0  0
  -35.1630    5.5577  -42.4252 C   0  0  0  0  0  0  0  0  0  0  0  0
  -36.6429    5.4576  -42.8054 C   0  0  0  0  0  0  0  0  0  0  0  0
  -36.9749    4.0081  -43.1668 C   0  0  0  0  0  0  0  0  0  0  0  0
  -36.1324    3.5770  -44.2897 N   0  0  0  0  0  0  0  0  0  0  0  0
  -36.5188    2.2380  -44.7539 C   0  0  0  0  0  0  0  0  0  0  0  0
  -35.7986    1.9261  -46.0674 C   0  0  0  0  0  0  0  0  0  0  0  0
  -36.1850    0.5870  -46.5316 N   0  0  0  0  0  0  0  0  0  0  0  0
  -34.7087    3.6195  -43.9322 C   0  0  0  0  0  0  0  0  0  0  0  0
  -34.3091    5.0575  -43.5937 C   0  0  0  0  0  0  0  0  0  0  0  0
  -35.4008    0.1977  -48.0005 X   0  0  0  0  0  0  0  0  0  0  0  0
  1  2  1  0  0  0  0
  2  3  1  0  0  0  0
  2 10  1  0  0  0  0
  3  4  1  0  0  0  0
  4  5  1  0  0  0  0
  5  6  1  0  0  0  0
  5  9  1  0  0  0  0
  6  7  1  0  0  0  0
  7  8  1  0  0  0  0
  8 11  1  0  0  0  0
  9 10  1  0  0  0  0
M  END
> <Index>
6193

> <PropertyFieldDistance>
nan

$$$$
14033772
BBcorina  12272117083D 1   1.00000     0.00000 
CORINA 4.3.0 0026  30.10.2019
 13 14  0  0  0  0  0  0  0  0999 V2000
  -36.0194    3.9411  -44.5845 N   0  0  0  0  0  0  0  0  0  0  0  0
  -36.9723    4.0084  -43.4693 C   0  0  0  0  0  0  0  0  0  0  0  0
  -36.6796    5.2477  -42.6204 C   0  0  0  0  0  0  0  0  0  0  0  0
  -35.2463    5.1684  -42.0875 C   0  0  0  0  0  0  0  0  0  0  0  0
  -34.2763    5.0495  -43.2662 C   0  0  0  0  0  0  0  0  0  0  0  0
  -34.6397    3.8168  -44.0972 C   0  0  0  0  0  0  0  0  0  0  0  0
  -34.9321    6.4145  -41.3003 C   0  0  0  0  0  0  0  0  0  0  0  0
  -34.5787    6.3380  -39.9617 C   0  0  0  0  0  0  0  0  0  0  0  0
  -34.2978    7.5022  -39.2719 C   0  0  0  0  0  0  0  0  0  0  0  0
  -34.3678    8.6749  -39.8710 N   0  0  0  0  0  0  0  0  0  0  0  0
  -34.6955    8.7849  -41.1437 C   0  0  0  0  0  0  0  0  0  0  0  0
  -34.9899    7.6645  -41.8972 C   0  0  0  0  0  0  0  0  0  0  0  0
  -36.4110    2.6614  -45.6489 X   0  0  0  0  0  0  0  0  0  0  0  0
  1  2  1  0  0  0  0
  1  6  1  0  0  0  0
  1 13  1  0  0  0  0
  2  3  1  0  0  0  0
  3  4  1  0  0  0  0
  4  5  1  0  0  0  0
  4  7  1  0  0  0  0
  5  6  1  0  0  0  0
  7  8  2  0  0  0  0
  7 12  1  0  0  0  0
  8  9  1  0  0  0  0
  9 10  2  0  0  0  0
 10 11  1  0  0  0  0
 11 12  2  0  0  0  0
M  END
> <Index>
6205

> <PropertyFieldDistance>
nan

$$$$
14716652
BBcorina  12272117083D 1   1.00000     0.00000 
CORINA 4.3.0 0026  30.10.2019
 14 15  0  0  0  0  0  0  0  0999 V2000
  -36.0446    0.4669  -43.4872 C   0  0  0  0  0  0  0  0  0  0  0  0
  -36.4011    1.0904  -44.8119 C   0  0  0  0  0  0  0  0  0  0  0  0
  -36.7890    0.3015  -45.8740 C   0  0  0  0  0  0  0  0  0  0  0  0
  -37.1029    0.8398  -47.0378 N   0  0  0  0  0  0  0  0  0  0  0  0
  -37.0611    2.1439  -47.2373 C   0  0  0  0  0  0  0  0  0  0  0  0
  -36.6893    3.0025  -46.2241 C   0  0  0  0  0  0  0  0  0  0  0  0
  -36.3436    2.4740  -44.9808 C   0  0  0  0  0  0  0  0  0  0  0  0
  -35.9569    3.3055  -43.9341 N   0  0  0  0  0  0  0  0  0  0  0  0
  -37.0242    4.2573  -43.5956 C   0  0  0  0  0  0  0  0  0  0  0  0
  -36.5923    5.0979  -42.3917 C   0  0  0  0  0  0  0  0  0  0  0  0
  -35.3434    5.8033  -42.7134 N   0  0  0  0  0  0  0  0  0  0  0  0
  -34.2761    4.8515  -43.0518 C   0  0  0  0  0  0  0  0  0  0  0  0
  -34.7085    4.0111  -44.2555 C   0  0  0  0  0  0  0  0  0  0  0  0
  -34.8683    6.8250  -41.4272 X   0  0  0  0  0  0  0  0  0  0  0  0
  1  2  1  0  0  0  0
  2  3  2  0  0  0  0
  2  7  1  0  0  0  0
  3  4  1  0  0  0  0
  4  5  2  0  0  0  0
  5  6  1  0  0  0  0
  6  7  2  0  0  0  0
  7  8  1  0  0  0  0
  8  9  1  0  0  0  0
  8 13  1  0  0  0  0
  9 10  1  0  0  0  0
 10 11  1  0  0  0  0
 11 12  1  0  0  0  0
 11 14  1  0  0  0  0
 12 13  1  0  0  0  0
M  END
> <Index>
6239

> <PropertyFieldDistance>
nan

$$$$
9294030
BBcorina  12272117083D 1   1.00000     0.00000 
CORINA 4.3.0 0026  30.10.2019
  8  8  0  0  0  0  0  0  0  0999 V2000
  -33.2024    3.2089  -43.8824 N   0  0  0  0  0  0  0  0  0  0  0  0
  -34.5801    2.6992  -43.8720 C   0  0  0  0  0  0  0  0  0  0  0  0
  -35.2996    3.1945  -42.6137 C   0  0  0  0  0  0  0  0  0  0  0  0
  -36.7571    2.7207  -42.6540 C   0  0  0  0  0  0  0  0  0  0  0  0
  -37.4160    3.2282  -43.9394 C   0  0  0  0  0  0  0  0  0  0  0  0
  -36.6786    2.7571  -45.0692 O   0  0  0  0  0  0  0  0  0  0  0  0
  -35.3231    3.2076  -45.1103 C   0  0  0  0  0  0  0  0  0  0  0  0
  -33.1791    4.9146  -43.7634 X   0  0  0  0  0  0  0  0  0  0  0  0
  1  2  1  0  0  0  0
  1  8  1  0  0  0  0
  2  3  1  0  0  0  0
  2  7  1  0  0  0  0
  3  4  1  0  0  0  0
  4  5  1  0  0  0  0
  5  6  1  0  0  0  0
  6  7  1  0  0  0  0
M  END
> <Index>
6255

> <PropertyFieldDistance>
nan

$$$$
7026204
BBcorina  12272117083D 1   1.00000     0.00000 
CORINA 4.3.0 0026  30.10.2019
 12 12  0  0  0  0  0  0  0  0999 V2000
  -36.8513    1.2143  -47.0783 C   0  0  0  0  0  0  0  0  0  0  0  0
  -36.8020    1.6083  -45.6008 C   0  0  0  0  0  0  0  0  0  0  0  0
  -36.3738    0.4006  -44.7647 C   0  0  0  0  0  0  0  0  0  0  0  0
  -35.7948    2.7441  -45.4091 C   0  0  0  0  0  0  0  0  0  0  0  0
  -35.8397    3.2085  -44.0162 N   0  0  0  0  0  0  0  0  0  0  0  0
  -37.0521    4.0167  -43.7659 C   0  0  0  0  0  0  0  0  0  0  0  0
  -36.6116    5.0799  -42.7290 C   0  0  0  0  0  0  0  0  0  0  0  0
  -35.1666    5.3949  -43.1977 C   0  0  0  0  0  0  0  0  0  0  0  0
  -34.3141    5.9008  -42.0322 C   0  0  0  0  0  0  0  0  0  0  0  0
  -34.7467    7.2546  -41.6606 N   0  0  0  0  0  0  0  0  0  0  0  0
  -34.6557    4.0257  -43.6933 C   0  0  0  0  0  0  0  0  0  0  0  0
  -33.8174    7.8591  -40.3586 X   0  0  0  0  0  0  0  0  0  0  0  0
  1  2  1  0  0  0  0
  2  3  1  0  0  0  0
  2  4  1  0  0  0  0
  4  5  1  0  0  0  0
  5  6  1  0  0  0  0
  5 11  1  0  0  0  0
  6  7  1  0  0  0  0
  7  8  1  0  0  0  0
  8  9  1  0  0  0  0
  8 11  1  0  0  0  0
  9 10  1  0  0  0  0
 10 12  1  0  0  0  0
M  END
> <Index>
6256

> <PropertyFieldDistance>
nan

$$$$
4839584
BBcorina  12272117083D 1   1.00000     0.00000 
CORINA 4.3.0 0026  30.10.2019
 10 10  0  0  0  0  0  0  0  0999 V2000
  -30.6515    5.3848  -43.9718 C   0  0  0  0  0  0  0  0  0  0  0  0
  -31.9098    4.7621  -43.7054 O   0  0  0  0  0  0  0  0  0  0  0  0
  -32.9630    5.6821  -43.4116 C   0  0  0  0  0  0  0  0  0  0  0  0
  -34.2558    4.9088  -43.1443 C   0  0  0  0  0  0  0  0  0  0  0  0
  -35.3535    5.8832  -42.7080 C   0  0  0  0  0  0  0  0  0  0  0  0
  -36.6587    5.1099  -42.5007 C   0  0  0  0  0  0  0  0  0  0  0  0
  -37.0290    4.3869  -43.7977 C   0  0  0  0  0  0  0  0  0  0  0  0
  -35.9479    3.4664  -44.1723 N   0  0  0  0  0  0  0  0  0  0  0  0
  -34.6959    4.1916  -44.4226 C   0  0  0  0  0  0  0  0  0  0  0  0
  -36.3899    2.5210  -45.5269 X   0  0  0  0  0  0  0  0  0  0  0  0
  1  2  1  0  0  0  0
  2  3  1  0  0  0  0
  3  4  1  0  0  0  0
  4  5  1  0  0  0  0
  4  9  1  0  0  0  0
  5  6  1  0  0  0  0
  6  7  1  0  0  0  0
  7  8  1  0  0  0  0
  8  9  1  0  0  0  0
  8 10  1  0  0  0  0
M  END
> <Index>
6259

> <PropertyFieldDistance>
nan

$$$$
15501702
BBcorina  12272117083D 1   1.00000     0.00000 
CORINA 4.3.0 0026  30.10.2019
  7  7  0  0  0  0  0  0  0  0999 V2000
  -38.4204    3.9977  -43.8133 C   0  0  0  0  0  0  0  0  0  0  0  0
  -36.9946    4.5502  -43.8666 C   0  0  0  0  0  0  0  0  0  0  0  0
  -36.4718    4.8295  -42.4412 C   0  0  0  0  0  0  0  0  0  0  0  0
  -34.9804    4.4370  -42.4773 C   0  0  0  0  0  0  0  0  0  0  0  0
  -34.7276    3.9536  -43.9215 C   0  0  0  0  0  0  0  0  0  0  0  0
  -36.0637    3.5298  -44.4136 N   0  0  0  0  0  0  0  0  0  0  0  0
  -36.1098    3.5118  -46.1229 X   0  0  0  0  0  0  0  0  0  0  0  0
  1  2  1  0  0  0  0
  2  3  1  0  0  0  0
  2  6  1  0  0  0  0
  3  4  1  0  0  0  0
  4  5  1  0  0  0  0
  5  6  1  0  0  0  0
  6  7  1  0  0  0  0
M  END
> <Index>
6263

> <PropertyFieldDistance>
nan

$$$$
8305266
BBcorina  12272117083D 1   1.00000     0.00000 
CORINA 4.3.0 0026  30.10.2019
 11 11  0  0  0  0  0  0  0  0999 V2000
  -36.7382    0.3222  -45.8160 N   0  0  0  0  0  0  0  0  0  0  0  0
  -37.0100    1.6283  -45.2011 C   0  0  0  0  0  0  0  0  0  0  0  0
  -35.7178    2.3871  -45.0413 C   0  0  0  0  0  0  0  0  0  0  0  0
  -34.6733    1.8889  -45.4041 O   0  0  0  0  0  0  0  0  0  0  0  0
  -35.7230    3.6193  -44.4955 N   0  0  0  0  0  0  0  0  0  0  0  0
  -36.9790    4.2441  -44.0474 C   0  0  0  0  0  0  0  0  0  0  0  0
  -36.7817    4.7484  -42.6132 C   0  0  0  0  0  0  0  0  0  0  0  0
  -35.6102    5.5659  -42.5576 O   0  0  0  0  0  0  0  0  0  0  0  0
  -34.3999    4.8771  -42.8812 C   0  0  0  0  0  0  0  0  0  0  0  0
  -34.4740    4.3794  -44.3293 C   0  0  0  0  0  0  0  0  0  0  0  0
  -38.1810   -0.5734  -46.0158 X   0  0  0  0  0  0  0  0  0  0  0  0
  1  2  1  0  0  0  0
  1 11  1  0  0  0  0
  2  3  1  0  0  0  0
  3  4  2  0  0  0  0
  3  5  1  0  0  0  0
  5  6  1  0  0  0  0
  5 10  1  0  0  0  0
  6  7  1  0  0  0  0
  7  8  1  0  0  0  0
  8  9  1  0  0  0  0
  9 10  1  0  0  0  0
M  END
> <Index>
6271

> <PropertyFieldDistance>
nan

$$$$
5453976
BBcorina  12272117083D 1   1.00000     0.00000 
CORINA 4.3.0 0026  30.10.2019
  9  9  0  0  0  0  0  0  0  0999 V2000
  -31.8269    4.6914  -40.7786 C   0  0  0  0  0  0  0  0  0  0  0  0
  -32.6912    4.8671  -41.9029 O   0  0  0  0  0  0  0  0  0  0  0  0
  -34.0823    4.8033  -41.5822 C   0  0  0  0  0  0  0  0  0  0  0  0
  -34.9087    5.0034  -42.8542 C   0  0  0  0  0  0  0  0  0  0  0  0
  -36.4203    5.0032  -42.5302 C   0  0  0  0  0  0  0  0  0  0  0  0
  -37.0792    4.2273  -43.6856 C   0  0  0  0  0  0  0  0  0  0  0  0
  -35.9998    3.8418  -44.6205 N   0  0  0  0  0  0  0  0  0  0  0  0
  -34.7584    3.7908  -43.8067 C   0  0  0  0  0  0  0  0  0  0  0  0
  -36.3244    2.3246  -45.3392 X   0  0  0  0  0  0  0  0  0  0  0  0
  1  2  1  0  0  0  0
  2  3  1  0  0  0  0
  3  4  1  0  0  0  0
  4  5  1  0  0  0  0
  4  8  1  0  0  0  0
  5  6  1  0  0  0  0
  6  7  1  0  0  0  0
  7  8  1  0  0  0  0
  7  9  1  0  0  0  0
M  END
> <Index>
6283

> <PropertyFieldDistance>
nan

$$$$
13762578
BBcorina  12272117083D 1   1.00000     0.00000 
CORINA 4.3.0 0026  30.10.2019
 11 11  0  0  0  0  0  0  0  0999 V2000
  -38.0920    8.3986  -39.1992 C   0  0  0  0  0  0  0  0  0  0  0  0
  -38.3299    7.7380  -40.4438 O   0  0  0  0  0  0  0  0  0  0  0  0
  -37.3276    6.7820  -40.7953 C   0  0  0  0  0  0  0  0  0  0  0  0
  -37.6833    6.1405  -42.1380 C   0  0  0  0  0  0  0  0  0  0  0  0
  -36.6101    5.1169  -42.5144 C   0  0  0  0  0  0  0  0  0  0  0  0
  -37.0250    4.3873  -43.7948 C   0  0  0  0  0  0  0  0  0  0  0  0
  -35.9555    3.4606  -44.1930 N   0  0  0  0  0  0  0  0  0  0  0  0
  -34.6941    4.1836  -44.4110 C   0  0  0  0  0  0  0  0  0  0  0  0
  -34.3026    4.9152  -43.1244 C   0  0  0  0  0  0  0  0  0  0  0  0
  -35.3668    5.7881  -42.7357 O   0  0  0  0  0  0  0  0  0  0  0  0
  -36.4010    2.5722  -45.5845 X   0  0  0  0  0  0  0  0  0  0  0  0
  1  2  1  0  0  0  0
  2  3  1  0  0  0  0
  3  4  1  0  0  0  0
  4  5  1  0  0  0  0
  5  6  1  0  0  0  0
  5 10  1  0  0  0  0
  6  7  1  0  0  0  0
  7  8  1  0  0  0  0
  7 11  1  0  0  0  0
  8  9  1  0  0  0  0
  9 10  1  0  0  0  0
M  END
> <Index>
6297

> <PropertyFieldDistance>
nan

$$$$
10643716
BBcorina  12272117083D 1   1.00000     0.00000 
CORINA 4.3.0 0026  30.10.2019
 11 12  0  0  0  0  0  0  0  0999 V2000
  -36.0142    2.2666  -46.4326 N   0  0  0  0  0  0  0  0  0  0  0  0
  -36.6279    3.0051  -45.4198 C   0  0  0  0  0  0  0  0  0  0  0  0
  -37.9610    3.1608  -45.2241 C   0  0  0  0  0  0  0  0  0  0  0  0
  -38.1375    3.9427  -44.1450 N   0  0  0  0  0  0  0  0  0  0  0  0
  -36.9787    4.2784  -43.6623 C   0  0  0  0  0  0  0  0  0  0  0  0
  -36.6993    5.1442  -42.4566 C   0  0  0  0  0  0  0  0  0  0  0  0
  -35.2372    4.9326  -42.0433 C   0  0  0  0  0  0  0  0  0  0  0  0
  -34.3391    5.0632  -43.2776 C   0  0  0  0  0  0  0  0  0  0  0  0
  -34.5658    3.8657  -44.2070 C   0  0  0  0  0  0  0  0  0  0  0  0
  -36.0044    3.7121  -44.4342 N   0  0  0  0  0  0  0  0  0  0  0  0
  -36.9681    1.4415  -47.5873 X   0  0  0  0  0  0  0  0  0  0  0  0
  1  2  1  0  0  0  0
  1 11  1  0  0  0  0
  2  3  2  0  0  0  0
  2 10  1  0  0  0  0
  3  4  1  0  0  0  0
  4  5  2  0  0  0  0
  5  6  1  0  0  0  0
  5 10  1  0  0  0  0
  6  7  1  0  0  0  0
  7  8  1  0  0  0  0
  8  9  1  0  0  0  0
  9 10  1  0  0  0  0
M  END
> <Index>
6301

> <PropertyFieldDistance>
nan

$$$$
15784810
BBcorina  12272117083D 1   1.00000     0.00000 
CORINA 4.3.0 0026  30.10.2019
 12 13  0  0  0  0  0  0  0  0999 V2000
  -32.7656    1.5146  -41.9435 N   0  0  0  0  0  0  0  0  0  0  0  0
  -33.5495    2.0367  -43.0709 C   0  0  0  0  0  0  0  0  0  0  0  0
  -34.7037    1.0719  -43.4428 C   0  0  0  0  0  0  0  0  0  0  0  0
  -35.7020    1.9011  -44.0598 O   0  0  0  0  0  0  0  0  0  0  0  0
  -35.5586    3.2517  -43.6106 C   0  0  0  0  0  0  0  0  0  0  0  0
  -34.3461    3.3051  -42.6590 C   0  0  0  0  0  0  0  0  0  0  0  0
  -35.3108    4.1761  -44.8020 C   0  0  0  0  0  0  0  0  0  0  0  0
  -36.5166    4.1299  -45.7432 C   0  0  0  0  0  0  0  0  0  0  0  0
  -37.7691    4.5810  -44.9891 C   0  0  0  0  0  0  0  0  0  0  0  0
  -38.0172    3.6449  -43.8045 C   0  0  0  0  0  0  0  0  0  0  0  0
  -36.8149    3.6897  -42.8589 C   0  0  0  0  0  0  0  0  0  0  0  0
  -31.1777    2.1491  -41.9553 X   0  0  0  0  0  0  0  0  0  0  0  0
  1  2  1  0  0  0  0
  1 12  1  0  0  0  0
  2  3  1  0  0  0  0
  2  6  1  0  0  0  0
  3  4  1  0  0  0  0
  4  5  1  0  0  0  0
  5  6  1  0  0  0  0
  5  7  1  0  0  0  0
  5 11  1  0  0  0  0
  7  8  1  0  0  0  0
  8  9  1  0  0  0  0
  9 10  1  0  0  0  0
 10 11  1  0  0  0  0
M  END
> <Index>
6308

> <PropertyFieldDistance>
nan

$$$$
13579970
BBcorina  12272117083D 1   1.00000     0.00000 
CORINA 4.3.0 0026  30.10.2019
 11 12  0  0  0  0  0  0  0  0999 V2000
  -35.9469    3.4672  -44.1694 N   0  0  0  0  0  0  0  0  0  0  0  0
  -37.0302    4.3869  -43.7986 C   0  0  0  0  0  0  0  0  0  0  0  0
  -36.6635    5.1093  -42.4991 C   0  0  0  0  0  0  0  0  0  0  0  0
  -35.3516    5.8639  -42.6941 C   0  0  0  0  0  0  0  0  0  0  0  0
  -34.9398    6.5473  -41.3712 C   0  0  0  0  0  0  0  0  0  0  0  0
  -34.0573    7.7101  -41.9036 C   0  0  0  0  0  0  0  0  0  0  0  0
  -34.7491    8.0636  -43.2382 C   0  0  0  0  0  0  0  0  0  0  0  0
  -35.5178    6.9229  -43.6425 O   0  0  0  0  0  0  0  0  0  0  0  0
  -34.2510    4.9082  -43.1461 C   0  0  0  0  0  0  0  0  0  0  0  0
  -34.6956    4.1921  -44.4246 C   0  0  0  0  0  0  0  0  0  0  0  0
  -36.3881    2.5127  -45.5179 X   0  0  0  0  0  0  0  0  0  0  0  0
  1  2  1  0  0  0  0
  1 10  1  0  0  0  0
  1 11  1  0  0  0  0
  2  3  1  0  0  0  0
  3  4  1  0  0  0  0
  4  5  1  0  0  0  0
  4  8  1  0  0  0  0
  4  9  1  0  0  0  0
  5  6  1  0  0  0  0
  6  7  1  0  0  0  0
  7  8  1  0  0  0  0
  9 10  1  0  0  0  0
M  END
> <Index>
6310

> <PropertyFieldDistance>
nan

$$$$
10745178
BBcorina  12272117083D 1   1.00000     0.00000 
CORINA 4.3.0 0026  30.10.2019
 10 10  0  0  0  0  0  0  0  0999 V2000
  -36.3557    1.3259  -45.1508 C   0  0  0  0  0  0  0  0  0  0  0  0
  -36.1261    2.7662  -45.6135 C   0  0  0  0  0  0  0  0  0  0  0  0
  -35.9565    3.6334  -44.4451 N   0  0  0  0  0  0  0  0  0  0  0  0
  -37.0556    4.3224  -43.7587 C   0  0  0  0  0  0  0  0  0  0  0  0
  -36.4877    4.7356  -42.3827 C   0  0  0  0  0  0  0  0  0  0  0  0
  -34.9732    4.8161  -42.6763 C   0  0  0  0  0  0  0  0  0  0  0  0
  -34.7742    3.8998  -43.8635 C   0  0  0  0  0  0  0  0  0  0  0  0
  -33.7044    3.4647  -44.2336 O   0  0  0  0  0  0  0  0  0  0  0  0
  -37.0159    6.0417  -41.9667 N   0  0  0  0  0  0  0  0  0  0  0  0
  -36.6947    7.2368  -43.1467 X   0  0  0  0  0  0  0  0  0  0  0  0
  1  2  1  0  0  0  0
  2  3  1  0  0  0  0
  3  4  1  0  0  0  0
  3  7  1  0  0  0  0
  4  5  1  0  0  0  0
  5  6  1  0  0  0  0
  5  9  1  0  0  0  0
  6  7  1  0  0  0  0
  7  8  2  0  0  0  0
  9 10  1  0  0  0  0
M  END
> <Index>
6312

> <PropertyFieldDistance>
nan

$$$$
11621046
BBcorina  12272117083D 1   1.00000     0.00000 
CORINA 4.3.0 0026  30.10.2019
 11 11  0  0  0  0  0  0  0  0999 V2000
  -36.5330    0.4206  -46.3717 C   0  0  0  0  0  0  0  0  0  0  0  0
  -36.3560    1.3260  -45.1511 C   0  0  0  0  0  0  0  0  0  0  0  0
  -36.1258    2.7662  -45.6135 C   0  0  0  0  0  0  0  0  0  0  0  0
  -35.9564    3.6331  -44.4448 N   0  0  0  0  0  0  0  0  0  0  0  0
  -37.0556    4.3222  -43.7586 C   0  0  0  0  0  0  0  0  0  0  0  0
  -36.4878    4.7359  -42.3828 C   0  0  0  0  0  0  0  0  0  0  0  0
  -34.9733    4.8165  -42.6765 C   0  0  0  0  0  0  0  0  0  0  0  0
  -34.7742    3.8999  -43.8633 C   0  0  0  0  0  0  0  0  0  0  0  0
  -33.7043    3.4648  -44.2333 O   0  0  0  0  0  0  0  0  0  0  0  0
  -37.0161    6.0421  -41.9672 N   0  0  0  0  0  0  0  0  0  0  0  0
  -36.6951    7.2369  -43.1477 X   0  0  0  0  0  0  0  0  0  0  0  0
  1  2  1  0  0  0  0
  2  3  1  0  0  0  0
  3  4  1  0  0  0  0
  4  5  1  0  0  0  0
  4  8  1  0  0  0  0
  5  6  1  0  0  0  0
  6  7  1  0  0  0  0
  6 10  1  0  0  0  0
  7  8  1  0  0  0  0
  8  9  2  0  0  0  0
 10 11  1  0  0  0  0
M  END
> <Index>
6313

> <PropertyFieldDistance>
nan

$$$$
8633314
BBcorina  12272117083D 1   1.00000     0.00000 
CORINA 4.3.0 0026  30.10.2019
  6  6  0  0  0  0  0  0  0  0999 V2000
  -36.0092    3.6485  -44.3730 N   0  0  0  0  0  0  0  0  0  0  0  0
  -37.0970    4.5020  -43.8232 C   0  0  0  0  0  0  0  0  0  0  0  0
  -36.5576    4.8913  -42.4273 C   0  0  0  0  0  0  0  0  0  0  0  0
  -35.0311    4.7093  -42.5399 C   0  0  0  0  0  0  0  0  0  0  0  0
  -34.7700    4.2964  -43.8942 O   0  0  0  0  0  0  0  0  0  0  0  0
  -36.0618    3.6140  -46.0819 X   0  0  0  0  0  0  0  0  0  0  0  0
  1  2  1  0  0  0  0
  1  5  1  0  0  0  0
  1  6  1  0  0  0  0
  2  3  1  0  0  0  0
  3  4  1  0  0  0  0
  4  5  1  0  0  0  0
M  END
> <Index>
6327

> <PropertyFieldDistance>
nan

$$$$
18182894
BBcorina  12272117083D 1   1.00000     0.00000 
CORINA 4.3.0 0026  30.10.2019
 11 12  0  0  0  0  0  0  0  0999 V2000
  -36.2985    0.2580  -45.1101 N   0  0  0  0  0  0  0  0  0  0  0  0
  -35.2277    1.2776  -45.1651 C   0  0  0  0  0  0  0  0  0  0  0  0
  -36.3354    2.3075  -44.8786 C   0  0  0  0  0  0  0  0  0  0  0  0
  -37.1224    1.1408  -44.2551 C   0  0  0  0  0  0  0  0  0  0  0  0
  -35.9453    3.3417  -43.9110 N   0  0  0  0  0  0  0  0  0  0  0  0
  -37.0433    4.2898  -43.6827 C   0  0  0  0  0  0  0  0  0  0  0  0
  -36.6554    5.2624  -42.5667 C   0  0  0  0  0  0  0  0  0  0  0  0
  -35.3834    6.0133  -42.9701 C   0  0  0  0  0  0  0  0  0  0  0  0
  -34.2691    5.0007  -43.2489 C   0  0  0  0  0  0  0  0  0  0  0  0
  -34.7262    4.0356  -44.3451 C   0  0  0  0  0  0  0  0  0  0  0  0
  -35.7838   -1.1252  -44.2465 X   0  0  0  0  0  0  0  0  0  0  0  0
  1  2  1  0  0  0  0
  1  4  1  0  0  0  0
  1 11  1  0  0  0  0
  2  3  1  0  0  0  0
  3  4  1  0  0  0  0
  3  5  1  0  0  0  0
  5  6  1  0  0  0  0
  5 10  1  0  0  0  0
  6  7  1  0  0  0  0
  7  8  1  0  0  0  0
  8  9  1  0  0  0  0
  9 10  1  0  0  0  0
M  END
> <Index>
6328

> <PropertyFieldDistance>
nan

$$$$
11678494
BBcorina  12272117083D 1   1.00000     0.00000 
CORINA 4.3.0 0026  30.10.2019
 11 12  0  0  0  0  0  0  0  0999 V2000
  -36.7148    0.2656  -45.0868 N   0  0  0  0  0  0  0  0  0  0  0  0
  -37.4467    1.3614  -44.4243 C   0  0  0  0  0  0  0  0  0  0  0  0
  -36.3427    2.3152  -44.9018 C   0  0  0  0  0  0  0  0  0  0  0  0
  -35.4788    1.0448  -44.8862 C   0  0  0  0  0  0  0  0  0  0  0  0
  -35.9484    3.3238  -43.9092 N   0  0  0  0  0  0  0  0  0  0  0  0
  -37.0377    4.2819  -43.6704 C   0  0  0  0  0  0  0  0  0  0  0  0
  -36.6072    5.2766  -42.5891 C   0  0  0  0  0  0  0  0  0  0  0  0
  -35.3979    5.9222  -42.9967 O   0  0  0  0  0  0  0  0  0  0  0  0
  -34.3158    5.0187  -43.2374 C   0  0  0  0  0  0  0  0  0  0  0  0
  -34.7230    4.0214  -44.3251 C   0  0  0  0  0  0  0  0  0  0  0  0
  -36.7144   -1.1441  -44.1189 X   0  0  0  0  0  0  0  0  0  0  0  0
  1  2  1  0  0  0  0
  1  4  1  0  0  0  0
  1 11  1  0  0  0  0
  2  3  1  0  0  0  0
  3  4  1  0  0  0  0
  3  5  1  0  0  0  0
  5  6  1  0  0  0  0
  5 10  1  0  0  0  0
  6  7  1  0  0  0  0
  7  8  1  0  0  0  0
  8  9  1  0  0  0  0
  9 10  1  0  0  0  0
M  END
> <Index>
6329

> <PropertyFieldDistance>
nan

$$$$
10642236
BBcorina  12272117083D 1   1.00000     0.00000 
CORINA 4.3.0 0026  30.10.2019
  9  9  0  0  0  0  0  0  0  0999 V2000
  -36.0172    3.5887  -44.4950 N   0  0  0  0  0  0  0  0  0  0  0  0
  -36.3920    2.1711  -44.5833 C   0  0  0  0  0  0  0  0  0  0  0  0
  -36.1073    1.6618  -45.9728 C   0  0  0  0  0  0  0  0  0  0  0  0
  -34.9736    1.0734  -46.1831 C   0  0  0  0  0  0  0  0  0  0  0  0
  -34.5425    0.5299  -47.5139 C   0  0  0  0  0  0  0  0  0  0  0  0
  -35.7516    0.3834  -48.4401 C   0  0  0  0  0  0  0  0  0  0  0  0
  -36.5409    1.6985  -48.4195 C   0  0  0  0  0  0  0  0  0  0  0  0
  -37.1530    1.8739  -47.0281 C   0  0  0  0  0  0  0  0  0  0  0  0
  -36.3249    4.2076  -42.9309 X   0  0  0  0  0  0  0  0  0  0  0  0
  1  2  1  0  0  0  0
  1  9  1  0  0  0  0
  2  3  1  0  0  0  0
  3  4  2  0  0  0  0
  3  8  1  0  0  0  0
  4  5  1  0  0  0  0
  5  6  1  0  0  0  0
  6  7  1  0  0  0  0
  7  8  1  0  0  0  0
M  END
> <Index>
6330

> <PropertyFieldDistance>
nan

$$$$
9164734
BBcorina  12272117083D 1   1.00000     0.00000 
CORINA 4.3.0 0026  30.10.2019
  7  7  0  0  0  0  0  0  0  0999 V2000
  -36.0231    3.6360  -44.4142 N   0  0  0  0  0  0  0  0  0  0  0  0
  -37.0524    4.4883  -43.8020 C   0  0  0  0  0  0  0  0  0  0  0  0
  -36.5882    4.9175  -42.4073 C   0  0  0  0  0  0  0  0  0  0  0  0
  -35.2510    5.6566  -42.5267 C   0  0  0  0  0  0  0  0  0  0  0  0
  -34.2316    4.7411  -43.2105 C   0  0  0  0  0  0  0  0  0  0  0  0
  -34.7400    4.3369  -44.4846 O   0  0  0  0  0  0  0  0  0  0  0  0
  -36.5134    3.0985  -45.9617 X   0  0  0  0  0  0  0  0  0  0  0  0
  1  2  1  0  0  0  0
  1  6  1  0  0  0  0
  1  7  1  0  0  0  0
  2  3  1  0  0  0  0
  3  4  1  0  0  0  0
  4  5  1  0  0  0  0
  5  6  1  0  0  0  0
M  END
> <Index>
6337

> <PropertyFieldDistance>
nan

$$$$
16495308
BBcorina  12272117083D 1   1.00000     0.00000 
CORINA 4.3.0 0026  30.10.2019
 11 11  0  0  0  0  0  0  0  0999 V2000
  -36.6274    0.5027  -46.2717 N   0  0  0  0  0  0  0  0  0  0  0  0
  -36.3752    1.3631  -45.1080 C   0  0  0  0  0  0  0  0  0  0  0  0
  -36.1520    2.8023  -45.5768 C   0  0  0  0  0  0  0  0  0  0  0  0
  -35.9006    3.6603  -44.4163 N   0  0  0  0  0  0  0  0  0  0  0  0
  -37.0388    4.3025  -43.7640 C   0  0  0  0  0  0  0  0  0  0  0  0
  -36.6505    4.7304  -42.3439 C   0  0  0  0  0  0  0  0  0  0  0  0
  -35.3105    5.4753  -42.4166 C   0  0  0  0  0  0  0  0  0  0  0  0
  -34.3083    4.5540  -42.9281 O   0  0  0  0  0  0  0  0  0  0  0  0
  -34.6387    3.8248  -44.0053 C   0  0  0  0  0  0  0  0  0  0  0  0
  -33.7494    3.2892  -44.6369 O   0  0  0  0  0  0  0  0  0  0  0  0
  -36.8827   -1.1185  -45.7914 X   0  0  0  0  0  0  0  0  0  0  0  0
  1  2  1  0  0  0  0
  1 11  1  0  0  0  0
  2  3  1  0  0  0  0
  3  4  1  0  0  0  0
  4  5  1  0  0  0  0
  4  9  1  0  0  0  0
  5  6  1  0  0  0  0
  6  7  1  0  0  0  0
  7  8  1  0  0  0  0
  8  9  1  0  0  0  0
  9 10  2  0  0  0  0
M  END
> <Index>
6338

> <PropertyFieldDistance>
nan

$$$$
9580770
BBcorina  12272117083D 1   1.00000     0.00000 
CORINA 4.3.0 0026  30.10.2019
 12 12  0  0  0  0  0  0  0  0999 V2000
  -35.5942    1.5749  -45.5811 C   0  0  0  0  0  0  0  0  0  0  0  0
  -36.5513    2.4123  -44.7726 C   0  0  0  0  0  0  0  0  0  0  0  0
  -37.6475    1.9774  -44.4895 O   0  0  0  0  0  0  0  0  0  0  0  0
  -36.1891    3.6445  -44.3641 N   0  0  0  0  0  0  0  0  0  0  0  0
  -37.1507    4.5189  -43.6790 C   0  0  0  0  0  0  0  0  0  0  0  0
  -36.5373    4.9846  -42.3548 C   0  0  0  0  0  0  0  0  0  0  0  0
  -35.1793    5.6356  -42.6274 C   0  0  0  0  0  0  0  0  0  0  0  0
  -34.2377    4.6093  -43.2614 C   0  0  0  0  0  0  0  0  0  0  0  0
  -32.8703    5.2516  -43.5033 C   0  0  0  0  0  0  0  0  0  0  0  0
  -31.9329    4.2355  -44.0001 N   0  0  0  0  0  0  0  0  0  0  0  0
  -34.8252    4.1393  -44.5959 C   0  0  0  0  0  0  0  0  0  0  0  0
  -30.3888    4.9130  -44.2841 X   0  0  0  0  0  0  0  0  0  0  0  0
  1  2  1  0  0  0  0
  2  3  2  0  0  0  0
  2  4  1  0  0  0  0
  4  5  1  0  0  0  0
  4 11  1  0  0  0  0
  5  6  1  0  0  0  0
  6  7  1  0  0  0  0
  7  8  1  0  0  0  0
  8  9  1  0  0  0  0
  8 11  1  0  0  0  0
  9 10  1  0  0  0  0
 10 12  1  0  0  0  0
M  END
> <Index>
6340

> <PropertyFieldDistance>
nan

$$$$
13824364
BBcorina  12272117083D 1   1.00000     0.00000 
CORINA 4.3.0 0026  30.10.2019
 10 10  0  0  0  0  0  0  0  0999 V2000
  -36.2799    4.1285  -43.1490 C   0  0  0  0  0  0  0  0  0  0  0  0
  -36.0172    3.5927  -44.4913 N   0  0  0  0  0  0  0  0  0  0  0  0
  -36.3933    2.1751  -44.5752 C   0  0  0  0  0  0  0  0  0  0  0  0
  -36.1059    1.6538  -45.9847 C   0  0  0  0  0  0  0  0  0  0  0  0
  -36.3808    0.1536  -46.0313 C   0  0  0  0  0  0  0  0  0  0  0  0
  -35.8448   -0.4353  -47.3388 C   0  0  0  0  0  0  0  0  0  0  0  0
  -36.7408    0.3142  -48.7310 S   0  0  0  0  0  0  0  0  0  0  0  0
  -36.5291    2.0911  -48.4129 C   0  0  0  0  0  0  0  0  0  0  0  0
  -36.9880    2.3956  -46.9844 C   0  0  0  0  0  0  0  0  0  0  0  0
  -34.3808    3.8197  -44.9324 X   0  0  0  0  0  0  0  0  0  0  0  0
  1  2  1  0  0  0  0
  2  3  1  0  0  0  0
  2 10  1  0  0  0  0
  3  4  1  0  0  0  0
  4  5  1  0  0  0  0
  4  9  1  0  0  0  0
  5  6  1  0  0  0  0
  6  7  1  0  0  0  0
  7  8  1  0  0  0  0
  8  9  1  0  0  0  0
M  END
> <Index>
6341

> <PropertyFieldDistance>
nan

$$$$
4556556
BBcorina  12272117083D 1   1.00000     0.00000 
CORINA 4.3.0 0026  30.10.2019
 13 14  0  0  0  0  0  0  0  0999 V2000
  -33.7382   10.2001  -40.9267 Br  0  0  0  0  0  0  0  0  0  0  0  0
  -34.3384    8.4114  -40.7982 C   0  0  0  0  0  0  0  0  0  0  0  0
  -34.6949    7.7453  -39.6205 C   0  0  0  0  0  0  0  0  0  0  0  0
  -35.0607    6.5286  -39.9338 N   0  0  0  0  0  0  0  0  0  0  0  0
  -34.9403    6.3786  -41.3214 N   0  0  0  0  0  0  0  0  0  0  0  0
  -34.4983    7.5489  -41.8291 C   0  0  0  0  0  0  0  0  0  0  0  0
  -35.2462    5.1676  -42.0870 C   0  0  0  0  0  0  0  0  0  0  0  0
  -36.6793    5.2476  -42.6202 C   0  0  0  0  0  0  0  0  0  0  0  0
  -36.9723    4.0087  -43.4695 C   0  0  0  0  0  0  0  0  0  0  0  0
  -36.0191    3.9414  -44.5845 N   0  0  0  0  0  0  0  0  0  0  0  0
  -34.6396    3.8164  -44.0970 C   0  0  0  0  0  0  0  0  0  0  0  0
  -34.2770    5.0496  -43.2665 C   0  0  0  0  0  0  0  0  0  0  0  0
  -36.4111    2.6621  -45.6494 X   0  0  0  0  0  0  0  0  0  0  0  0
  1  2  1  0  0  0  0
  2  3  1  0  0  0  0
  2  6  2  0  0  0  0
  3  4  2  0  0  0  0
  4  5  1  0  0  0  0
  5  6  1  0  0  0  0
  5  7  1  0  0  0  0
  7  8  1  0  0  0  0
  7 12  1  0  0  0  0
  8  9  1  0  0  0  0
  9 10  1  0  0  0  0
 10 11  1  0  0  0  0
 10 13  1  0  0  0  0
 11 12  1  0  0  0  0
M  END
> <Index>
6352

> <PropertyFieldDistance>
nan

$$$$
4545080
BBcorina  12272117083D 1   1.00000     0.00000 
CORINA 4.3.0 0026  30.10.2019
  9  9  0  0  0  0  0  0  0  0999 V2000
  -37.5876    5.7389  -41.5829 C   0  0  0  0  0  0  0  0  0  0  0  0
  -36.6612    5.4094  -42.7551 C   0  0  0  0  0  0  0  0  0  0  0  0
  -36.9565    3.9941  -43.2572 C   0  0  0  0  0  0  0  0  0  0  0  0
  -36.0390    3.6659  -44.3573 N   0  0  0  0  0  0  0  0  0  0  0  0
  -36.3409    2.3419  -44.9173 C   0  0  0  0  0  0  0  0  0  0  0  0
  -34.6402    3.7435  -43.9134 C   0  0  0  0  0  0  0  0  0  0  0  0
  -34.3449    5.1588  -43.4113 C   0  0  0  0  0  0  0  0  0  0  0  0
  -35.2623    5.4870  -42.3113 N   0  0  0  0  0  0  0  0  0  0  0  0
  -34.9109    7.0282  -41.6593 X   0  0  0  0  0  0  0  0  0  0  0  0
  1  2  1  0  0  0  0
  2  3  1  0  0  0  0
  2  8  1  0  0  0  0
  3  4  1  0  0  0  0
  4  5  1  0  0  0  0
  4  6  1  0  0  0  0
  6  7  1  0  0  0  0
  7  8  1  0  0  0  0
  8  9  1  0  0  0  0
M  END
> <Index>
6353

> <PropertyFieldDistance>
nan

$$$$
4787196
BBcorina  12272117083D 1   1.00000     0.00000 
CORINA 4.3.0 0026  30.10.2019
 10 10  0  0  0  0  0  0  0  0999 V2000
  -36.3588    2.2484  -44.7136 C   0  0  0  0  0  0  0  0  0  0  0  0
  -35.9938    3.5636  -44.1814 N   0  0  0  0  0  0  0  0  0  0  0  0
  -36.9706    4.4566  -43.8675 C   0  0  0  0  0  0  0  0  0  0  0  0
  -36.6612    5.6770  -43.3744 C   0  0  0  0  0  0  0  0  0  0  0  0
  -35.3194    6.0364  -43.1803 C   0  0  0  0  0  0  0  0  0  0  0  0
  -34.3354    5.1401  -43.4952 C   0  0  0  0  0  0  0  0  0  0  0  0
  -32.9878    5.4737  -43.3116 N   0  0  0  0  0  0  0  0  0  0  0  0
  -34.6949    3.8743  -44.0082 C   0  0  0  0  0  0  0  0  0  0  0  0
  -33.8291    3.0626  -44.2940 O   0  0  0  0  0  0  0  0  0  0  0  0
  -32.5641    7.0095  -42.6903 X   0  0  0  0  0  0  0  0  0  0  0  0
  1  2  1  0  0  0  0
  2  3  1  0  0  0  0
  2  8  1  0  0  0  0
  3  4  2  0  0  0  0
  4  5  1  0  0  0  0
  5  6  2  0  0  0  0
  6  7  1  0  0  0  0
  6  8  1  0  0  0  0
  7 10  1  0  0  0  0
  8  9  2  0  0  0  0
M  END
> <Index>
6355

> <PropertyFieldDistance>
nan

$$$$
7049638
BBcorina  12272117083D 1   1.00000     0.00000 
CORINA 4.3.0 0026  30.10.2019
 15 16  0  0  0  0  0  0  0  0999 V2000
  -33.6220    6.9960  -41.2897 C   0  0  0  0  0  0  0  0  0  0  0  0
  -34.9723    6.8746  -41.8552 N   0  0  0  0  0  0  0  0  0  0  0  0
  -35.2424    5.4951  -42.2817 C   0  0  0  0  0  0  0  0  0  0  0  0
  -36.6961    5.3791  -42.7485 C   0  0  0  0  0  0  0  0  0  0  0  0
  -36.9542    3.9559  -43.2483 C   0  0  0  0  0  0  0  0  0  0  0  0
  -36.0397    3.6514  -44.3562 N   0  0  0  0  0  0  0  0  0  0  0  0
  -34.6388    3.7102  -43.9198 C   0  0  0  0  0  0  0  0  0  0  0  0
  -34.3115    5.1261  -43.4401 C   0  0  0  0  0  0  0  0  0  0  0  0
  -36.3344    2.4151  -44.9203 C   0  0  0  0  0  0  0  0  0  0  0  0
  -35.5809    1.9361  -45.9913 C   0  0  0  0  0  0  0  0  0  0  0  0
  -35.9155    0.6985  -46.5179 C   0  0  0  0  0  0  0  0  0  0  0  0
  -36.9787    0.0128  -45.9476 C   0  0  0  0  0  0  0  0  0  0  0  0
  -37.6373    0.5411  -44.9355 N   0  0  0  0  0  0  0  0  0  0  0  0
  -37.3332    1.6866  -44.4428 N   0  0  0  0  0  0  0  0  0  0  0  0
  -36.1533    7.4145  -40.7427 X   0  0  0  0  0  0  0  0  0  0  0  0
  1  2  1  0  0  0  0
  2  3  1  0  0  0  0
  2 15  1  0  0  0  0
  3  4  1  0  0  0  0
  3  8  1  0  0  0  0
  4  5  1  0  0  0  0
  5  6  1  0  0  0  0
  6  7  1  0  0  0  0
  6  9  1  0  0  0  0
  7  8  1  0  0  0  0
  9 10  2  0  0  0  0
  9 14  1  0  0  0  0
 10 11  1  0  0  0  0
 11 12  2  0  0  0  0
 12 13  1  0  0  0  0
 13 14  2  0  0  0  0
M  END
> <Index>
6367

> <PropertyFieldDistance>
nan

$$$$
16789674
BBcorina  12272117083D 1   1.00000     0.00000 
CORINA 4.3.0 0026  30.10.2019
 10 10  0  0  0  0  0  0  0  0999 V2000
  -36.3511    2.2197  -44.6625 C   0  0  0  0  0  0  0  0  0  0  0  0
  -36.0474    3.6487  -44.5075 N   0  0  0  0  0  0  0  0  0  0  0  0
  -37.0948    4.3295  -43.7245 C   0  0  0  0  0  0  0  0  0  0  0  0
  -36.4025    4.9956  -42.5168 C   0  0  0  0  0  0  0  0  0  0  0  0
  -34.9315    5.1341  -42.9899 C   0  0  0  0  0  0  0  0  0  0  0  0
  -33.9722    5.1551  -41.7981 C   0  0  0  0  0  0  0  0  0  0  0  0
  -32.5486    5.4172  -42.2938 C   0  0  0  0  0  0  0  0  0  0  0  0
  -31.6276    5.4373  -41.1496 N   0  0  0  0  0  0  0  0  0  0  0  0
  -34.7493    3.8437  -43.8272 C   0  0  0  0  0  0  0  0  0  0  0  0
  -30.0218    5.7280  -41.6606 X   0  0  0  0  0  0  0  0  0  0  0  0
  1  2  1  0  0  0  0
  2  3  1  0  0  0  0
  2  9  1  0  0  0  0
  3  4  1  0  0  0  0
  4  5  1  0  0  0  0
  5  6  1  0  0  0  0
  5  9  1  0  0  0  0
  6  7  1  0  0  0  0
  7  8  1  0  0  0  0
  8 10  1  0  0  0  0
M  END
> <Index>
6369

> <PropertyFieldDistance>
nan

$$$$
6483540
BBcorina  12272117083D 1   1.00000     0.00000 
CORINA 4.3.0 0026  30.10.2019
 14 14  0  0  0  0  0  0  0  0999 V2000
  -38.6167   -0.6889  -47.8713 C   0  0  0  0  0  0  0  0  0  0  0  0
  -38.2370   -0.1172  -46.5725 N   0  0  0  0  0  0  0  0  0  0  0  0
  -37.2770    0.9817  -46.7413 C   0  0  0  0  0  0  0  0  0  0  0  0
  -36.9062    1.5503  -45.3701 C   0  0  0  0  0  0  0  0  0  0  0  0
  -36.2130    0.5556  -44.6136 O   0  0  0  0  0  0  0  0  0  0  0  0
  -36.0046    2.7731  -45.5518 C   0  0  0  0  0  0  0  0  0  0  0  0
  -35.7065    3.3610  -44.2390 N   0  0  0  0  0  0  0  0  0  0  0  0
  -36.8609    4.1101  -43.7232 C   0  0  0  0  0  0  0  0  0  0  0  0
  -36.5386    4.6384  -42.3234 C   0  0  0  0  0  0  0  0  0  0  0  0
  -35.3454    5.4938  -42.3881 N   0  0  0  0  0  0  0  0  0  0  0  0
  -35.0474    6.0819  -41.0753 C   0  0  0  0  0  0  0  0  0  0  0  0
  -34.1912    4.7448  -42.9039 C   0  0  0  0  0  0  0  0  0  0  0  0
  -34.5135    4.2166  -44.3038 C   0  0  0  0  0  0  0  0  0  0  0  0
  -37.6126   -1.3218  -45.5317 X   0  0  0  0  0  0  0  0  0  0  0  0
  1  2  1  0  0  0  0
  2  3  1  0  0  0  0
  2 14  1  0  0  0  0
  3  4  1  0  0  0  0
  4  5  1  0  0  0  0
  4  6  1  0  0  0  0
  6  7  1  0  0  0  0
  7  8  1  0  0  0  0
  7 13  1  0  0  0  0
  8  9  1  0  0  0  0
  9 10  1  0  0  0  0
 10 11  1  0  0  0  0
 10 12  1  0  0  0  0
 12 13  1  0  0  0  0
M  END
> <Index>
6371

> <PropertyFieldDistance>
nan

$$$$
4600096
BBcorina  12272117083D 1   1.00000     0.00000 
CORINA 4.3.0 0026  30.10.2019
  9  9  0  0  0  0  0  0  0  0999 V2000
  -36.0191    3.9414  -44.5845 N   0  0  0  0  0  0  0  0  0  0  0  0
  -36.9723    4.0086  -43.4694 C   0  0  0  0  0  0  0  0  0  0  0  0
  -36.6793    5.2476  -42.6203 C   0  0  0  0  0  0  0  0  0  0  0  0
  -35.2462    5.1675  -42.0868 C   0  0  0  0  0  0  0  0  0  0  0  0
  -34.2769    5.0496  -43.2664 C   0  0  0  0  0  0  0  0  0  0  0  0
  -34.6396    3.8164  -44.0971 C   0  0  0  0  0  0  0  0  0  0  0  0
  -34.9307    6.4122  -41.2983 C   0  0  0  0  0  0  0  0  0  0  0  0
  -34.5952    6.3201  -40.0353 C   0  0  0  0  0  0  0  0  0  0  0  0
  -36.4111    2.6624  -45.6495 X   0  0  0  0  0  0  0  0  0  0  0  0
  1  2  1  0  0  0  0
  1  6  1  0  0  0  0
  1  9  1  0  0  0  0
  2  3  1  0  0  0  0
  3  4  1  0  0  0  0
  4  5  1  0  0  0  0
  4  7  1  0  0  0  0
  5  6  1  0  0  0  0
  7  8  2  0  0  0  0
M  END
> <Index>
6386

> <PropertyFieldDistance>
nan

$$$$
5821854
BBcorina  12272117083D 1   1.00000     0.00000 
CORINA 4.3.0 0026  30.10.2019
 10 10  0  0  0  0  0  0  0  0999 V2000
  -36.2553    6.9409  -41.1044 C   0  0  0  0  0  0  0  0  0  0  0  0
  -35.9763    6.1240  -42.3676 C   0  0  0  0  0  0  0  0  0  0  0  0
  -36.8225    4.8479  -42.3393 C   0  0  0  0  0  0  0  0  0  0  0  0
  -37.0212    4.3749  -43.7648 C   0  0  0  0  0  0  0  0  0  0  0  0
  -38.1154    4.4499  -44.2826 O   0  0  0  0  0  0  0  0  0  0  0  0
  -35.9892    3.8744  -44.4505 N   0  0  0  0  0  0  0  0  0  0  0  0
  -34.6616    3.7771  -43.8208 C   0  0  0  0  0  0  0  0  0  0  0  0
  -34.0928    5.1893  -43.6623 C   0  0  0  0  0  0  0  0  0  0  0  0
  -34.5582    5.7995  -42.4255 N   0  0  0  0  0  0  0  0  0  0  0  0
  -33.6020    7.1561  -42.0139 X   0  0  0  0  0  0  0  0  0  0  0  0
  1  2  1  0  0  0  0
  2  3  1  0  0  0  0
  2  9  1  0  0  0  0
  3  4  1  0  0  0  0
  4  5  2  0  0  0  0
  4  6  1  0  0  0  0
  6  7  1  0  0  0  0
  7  8  1  0  0  0  0
  8  9  1  0  0  0  0
  9 10  1  0  0  0  0
M  END
> <Index>
6394

> <PropertyFieldDistance>
nan

$$$$
4600822
BBcorina  12272117083D 1   1.00000     0.00000 
CORINA 4.3.0 0026  30.10.2019
 11 11  0  0  0  0  0  0  0  0999 V2000
  -30.6371    5.7527  -44.0647 C   0  0  0  0  0  0  0  0  0  0  0  0
  -31.8756    5.0130  -43.8090 N   0  0  0  0  0  0  0  0  0  0  0  0
  -32.9818    5.6696  -43.4073 C   0  0  0  0  0  0  0  0  0  0  0  0
  -32.9522    6.8728  -43.2575 O   0  0  0  0  0  0  0  0  0  0  0  0
  -34.2559    4.9088  -43.1443 C   0  0  0  0  0  0  0  0  0  0  0  0
  -35.3534    5.8832  -42.7080 C   0  0  0  0  0  0  0  0  0  0  0  0
  -36.6587    5.1099  -42.5007 C   0  0  0  0  0  0  0  0  0  0  0  0
  -37.0290    4.3869  -43.7977 C   0  0  0  0  0  0  0  0  0  0  0  0
  -35.9480    3.4664  -44.1723 N   0  0  0  0  0  0  0  0  0  0  0  0
  -34.6958    4.1916  -44.4226 C   0  0  0  0  0  0  0  0  0  0  0  0
  -36.3899    2.5210  -45.5270 X   0  0  0  0  0  0  0  0  0  0  0  0
  1  2  1  0  0  0  0
  2  3  1  0  0  0  0
  3  4  2  0  0  0  0
  3  5  1  0  0  0  0
  5  6  1  0  0  0  0
  5 10  1  0  0  0  0
  6  7  1  0  0  0  0
  7  8  1  0  0  0  0
  8  9  1  0  0  0  0
  9 10  1  0  0  0  0
  9 11  1  0  0  0  0
M  END
> <Index>
6400

> <PropertyFieldDistance>
nan

$$$$
4601724
BBcorina  12272117083D 1   1.00000     0.00000 
CORINA 4.3.0 0026  30.10.2019
  9  9  0  0  0  0  0  0  0  0999 V2000
  -35.8122    6.4843  -40.0404 C   0  0  0  0  0  0  0  0  0  0  0  0
  -34.9269    6.4321  -41.2871 C   0  0  0  0  0  0  0  0  0  0  0  0
  -35.2462    5.1675  -42.0868 C   0  0  0  0  0  0  0  0  0  0  0  0
  -36.6793    5.2476  -42.6203 C   0  0  0  0  0  0  0  0  0  0  0  0
  -36.9723    4.0086  -43.4694 C   0  0  0  0  0  0  0  0  0  0  0  0
  -36.0191    3.9414  -44.5845 N   0  0  0  0  0  0  0  0  0  0  0  0
  -34.6396    3.8164  -44.0971 C   0  0  0  0  0  0  0  0  0  0  0  0
  -34.2769    5.0496  -43.2664 C   0  0  0  0  0  0  0  0  0  0  0  0
  -36.4111    2.6624  -45.6495 X   0  0  0  0  0  0  0  0  0  0  0  0
  1  2  1  0  0  0  0
  2  3  1  0  0  0  0
  3  4  1  0  0  0  0
  3  8  1  0  0  0  0
  4  5  1  0  0  0  0
  5  6  1  0  0  0  0
  6  7  1  0  0  0  0
  6  9  1  0  0  0  0
  7  8  1  0  0  0  0
M  END
> <Index>
6431

> <PropertyFieldDistance>
nan

$$$$
5730600
BBcorina  12272117083D 1   1.00000     0.00000 
CORINA 4.3.0 0026  30.10.2019
 10 10  0  0  0  0  0  0  0  0999 V2000
  -38.3029    3.5226  -43.2755 C   0  0  0  0  0  0  0  0  0  0  0  0
  -37.0433    4.2897  -43.6827 C   0  0  0  0  0  0  0  0  0  0  0  0
  -36.6555    5.2624  -42.5667 C   0  0  0  0  0  0  0  0  0  0  0  0
  -35.3834    6.0133  -42.9700 C   0  0  0  0  0  0  0  0  0  0  0  0
  -34.2691    5.0007  -43.2489 C   0  0  0  0  0  0  0  0  0  0  0  0
  -34.7262    4.0357  -44.3452 C   0  0  0  0  0  0  0  0  0  0  0  0
  -35.9454    3.3417  -43.9110 N   0  0  0  0  0  0  0  0  0  0  0  0
  -36.3354    2.3075  -44.8786 C   0  0  0  0  0  0  0  0  0  0  0  0
  -34.9733    6.9062  -41.8781 N   0  0  0  0  0  0  0  0  0  0  0  0
  -35.7683    8.4160  -41.9896 X   0  0  0  0  0  0  0  0  0  0  0  0
  1  2  1  0  0  0  0
  2  3  1  0  0  0  0
  2  7  1  0  0  0  0
  3  4  1  0  0  0  0
  4  5  1  0  0  0  0
  4  9  1  0  0  0  0
  5  6  1  0  0  0  0
  6  7  1  0  0  0  0
  7  8  1  0  0  0  0
  9 10  1  0  0  0  0
M  END
> <Index>
6436

> <PropertyFieldDistance>
nan

$$$$
4602704
BBcorina  12272117083D 1   1.00000     0.00000 
CORINA 4.3.0 0026  30.10.2019
 11 11  0  0  0  0  0  0  0  0999 V2000
  -36.4311    2.6232  -45.2663 C   0  0  0  0  0  0  0  0  0  0  0  0
  -35.9890    3.2950  -44.0369 N   0  0  0  0  0  0  0  0  0  0  0  0
  -37.0103    4.2347  -43.5539 C   0  0  0  0  0  0  0  0  0  0  0  0
  -36.5467    4.8531  -42.2328 C   0  0  0  0  0  0  0  0  0  0  0  0
  -35.2619    5.5360  -42.4387 N   0  0  0  0  0  0  0  0  0  0  0  0
  -34.8197    6.2078  -41.2094 C   0  0  0  0  0  0  0  0  0  0  0  0
  -34.2406    4.5962  -42.9218 C   0  0  0  0  0  0  0  0  0  0  0  0
  -32.9231    5.3421  -43.1419 C   0  0  0  0  0  0  0  0  0  0  0  0
  -31.8808    4.3875  -43.5425 N   0  0  0  0  0  0  0  0  0  0  0  0
  -34.7042    3.9779  -44.2429 C   0  0  0  0  0  0  0  0  0  0  0  0
  -30.3606    5.1593  -43.6739 X   0  0  0  0  0  0  0  0  0  0  0  0
  1  2  1  0  0  0  0
  2  3  1  0  0  0  0
  2 10  1  0  0  0  0
  3  4  1  0  0  0  0
  4  5  1  0  0  0  0
  5  6  1  0  0  0  0
  5  7  1  0  0  0  0
  7  8  1  0  0  0  0
  7 10  1  0  0  0  0
  8  9  1  0  0  0  0
  9 11  1  0  0  0  0
M  END
> <Index>
6440

> <PropertyFieldDistance>
nan

$$$$
5137158
BBcorina  12272117083D 1   1.00000     0.00000 
CORINA 4.3.0 0026  30.10.2019
 14 15  0  0  0  0  0  0  0  0999 V2000
  -35.2513    5.7192  -42.6821 N   0  0  0  0  0  0  0  0  0  0  0  0
  -36.5101    5.0624  -42.3028 C   0  0  0  0  0  0  0  0  0  0  0  0
  -37.0906    4.3370  -43.5191 C   0  0  0  0  0  0  0  0  0  0  0  0
  -36.1150    3.3546  -44.0120 N   0  0  0  0  0  0  0  0  0  0  0  0
  -36.6655    2.5837  -45.1347 C   0  0  0  0  0  0  0  0  0  0  0  0
  -35.5913    1.6415  -45.6818 C   0  0  0  0  0  0  0  0  0  0  0  0
  -36.1463    0.8766  -46.8873 C   0  0  0  0  0  0  0  0  0  0  0  0
  -35.0919   -0.1179  -47.3802 C   0  0  0  0  0  0  0  0  0  0  0  0
  -34.7373   -1.0015  -46.3145 O   0  0  0  0  0  0  0  0  0  0  0  0
  -34.1689   -0.3468  -45.1785 C   0  0  0  0  0  0  0  0  0  0  0  0
  -35.1862    0.6386  -44.5972 C   0  0  0  0  0  0  0  0  0  0  0  0
  -34.8563    4.0114  -44.3913 C   0  0  0  0  0  0  0  0  0  0  0  0
  -34.2758    4.7368  -43.1750 C   0  0  0  0  0  0  0  0  0  0  0  0
  -34.6104    6.6167  -41.3753 X   0  0  0  0  0  0  0  0  0  0  0  0
  1  2  1  0  0  0  0
  1 13  1  0  0  0  0
  1 14  1  0  0  0  0
  2  3  1  0  0  0  0
  3  4  1  0  0  0  0
  4  5  1  0  0  0  0
  4 12  1  0  0  0  0
  5  6  1  0  0  0  0
  6  7  1  0  0  0  0
  6 11  1  0  0  0  0
  7  8  1  0  0  0  0
  8  9  1  0  0  0  0
  9 10  1  0  0  0  0
 10 11  1  0  0  0  0
 12 13  1  0  0  0  0
M  END
> <Index>
6457

> <PropertyFieldDistance>
nan

$$$$
4974230
BBcorina  12272117083D 1   1.00000     0.00000 
CORINA 4.3.0 0026  30.10.2019
 11 11  0  0  0  0  0  0  0  0999 V2000
  -37.1133    1.9529  -45.5794 C   0  0  0  0  0  0  0  0  0  0  0  0
  -35.7038    2.2733  -45.0781 C   0  0  0  0  0  0  0  0  0  0  0  0
  -35.6992    3.5981  -44.4433 N   0  0  0  0  0  0  0  0  0  0  0  0
  -36.8443    3.7513  -43.5369 C   0  0  0  0  0  0  0  0  0  0  0  0
  -36.8892    5.1866  -43.0078 C   0  0  0  0  0  0  0  0  0  0  0  0
  -35.5842    5.4937  -42.2679 C   0  0  0  0  0  0  0  0  0  0  0  0
  -34.4043    5.2797  -43.2203 C   0  0  0  0  0  0  0  0  0  0  0  0
  -34.4315    3.8418  -43.7432 C   0  0  0  0  0  0  0  0  0  0  0  0
  -33.2658    3.6293  -44.7113 C   0  0  0  0  0  0  0  0  0  0  0  0
  -35.5972    6.8888  -41.8081 N   0  0  0  0  0  0  0  0  0  0  0  0
  -35.8639    7.9616  -43.1128 X   0  0  0  0  0  0  0  0  0  0  0  0
  1  2  1  0  0  0  0
  2  3  1  0  0  0  0
  3  4  1  0  0  0  0
  3  8  1  0  0  0  0
  4  5  1  0  0  0  0
  5  6  1  0  0  0  0
  6  7  1  0  0  0  0
  6 10  1  0  0  0  0
  7  8  1  0  0  0  0
  8  9  1  0  0  0  0
 10 11  1  0  0  0  0
M  END
> <Index>
6476

> <PropertyFieldDistance>
nan

$$$$
6008094
BBcorina  12272117083D 1   1.00000     0.00000 
CORINA 4.3.0 0026  30.10.2019
 14 15  0  0  0  0  0  0  0  0999 V2000
  -36.0564    0.3358  -49.1403 C   0  0  0  0  0  0  0  0  0  0  0  0
  -36.6133   -0.2415  -47.8374 C   0  0  0  0  0  0  0  0  0  0  0  0
  -36.6625    0.8402  -46.7893 C   0  0  0  0  0  0  0  0  0  0  0  0
  -37.6860    1.6639  -46.5619 C   0  0  0  0  0  0  0  0  0  0  0  0
  -37.4890    2.5275  -45.5816 N   0  0  0  0  0  0  0  0  0  0  0  0
  -36.3423    2.4775  -44.9780 C   0  0  0  0  0  0  0  0  0  0  0  0
  -35.3748    1.2416  -45.6562 S   0  0  0  0  0  0  0  0  0  0  0  0
  -35.9572    3.3052  -43.9350 N   0  0  0  0  0  0  0  0  0  0  0  0
  -37.0245    4.2570  -43.5964 C   0  0  0  0  0  0  0  0  0  0  0  0
  -36.5921    5.0969  -42.3922 C   0  0  0  0  0  0  0  0  0  0  0  0
  -35.3437    5.8025  -42.7133 N   0  0  0  0  0  0  0  0  0  0  0  0
  -34.2763    4.8507  -43.0519 C   0  0  0  0  0  0  0  0  0  0  0  0
  -34.7087    4.0107  -44.2561 C   0  0  0  0  0  0  0  0  0  0  0  0
  -34.8685    6.8237  -41.4266 X   0  0  0  0  0  0  0  0  0  0  0  0
  1  2  1  0  0  0  0
  2  3  1  0  0  0  0
  3  4  2  0  0  0  0
  3  7  1  0  0  0  0
  4  5  1  0  0  0  0
  5  6  2  0  0  0  0
  6  7  1  0  0  0  0
  6  8  1  0  0  0  0
  8  9  1  0  0  0  0
  8 13  1  0  0  0  0
  9 10  1  0  0  0  0
 10 11  1  0  0  0  0
 11 12  1  0  0  0  0
 11 14  1  0  0  0  0
 12 13  1  0  0  0  0
M  END
> <Index>
6478

> <PropertyFieldDistance>
nan

$$$$
4711212
BBcorina  12272117083D 1   1.00000     0.00000 
CORINA 4.3.0 0026  30.10.2019
 10 10  0  0  0  0  0  0  0  0999 V2000
  -33.0126    3.4011  -43.8653 N   0  0  0  0  0  0  0  0  0  0  0  0
  -34.3915    2.8947  -43.8549 C   0  0  0  0  0  0  0  0  0  0  0  0
  -35.1015    3.3847  -42.5962 C   0  0  0  0  0  0  0  0  0  0  0  0
  -36.4425    2.6813  -42.4244 C   0  0  0  0  0  0  0  0  0  0  0  0
  -37.4237    3.1607  -43.4965 C   0  0  0  0  0  0  0  0  0  0  0  0
  -36.7949    2.6793  -45.1315 S   0  0  0  0  0  0  0  0  0  0  0  0
  -37.5586    3.3465  -46.1269 O   0  0  0  0  0  0  0  0  0  0  0  0
  -36.6780    1.2638  -45.1750 O   0  0  0  0  0  0  0  0  0  0  0  0
  -35.1275    3.3996  -45.0981 C   0  0  0  0  0  0  0  0  0  0  0  0
  -32.9876    5.1109  -43.8564 X   0  0  0  0  0  0  0  0  0  0  0  0
  1  2  1  0  0  0  0
  1 10  1  0  0  0  0
  2  3  1  0  0  0  0
  2  9  1  0  0  0  0
  3  4  1  0  0  0  0
  4  5  1  0  0  0  0
  5  6  1  0  0  0  0
  6  7  2  0  0  0  0
  6  8  2  0  0  0  0
  6  9  1  0  0  0  0
M  END
> <Index>
6490

> <PropertyFieldDistance>
nan

$$$$
4839616
BBcorina  12272117083D 1   1.00000     0.00000 
CORINA 4.3.0 0026  30.10.2019
 10 10  0  0  0  0  0  0  0  0999 V2000
  -30.6515    5.3848  -43.9718 C   0  0  0  0  0  0  0  0  0  0  0  0
  -31.9098    4.7621  -43.7054 O   0  0  0  0  0  0  0  0  0  0  0  0
  -32.9630    5.6821  -43.4116 C   0  0  0  0  0  0  0  0  0  0  0  0
  -34.2558    4.9088  -43.1443 C   0  0  0  0  0  0  0  0  0  0  0  0
  -35.3535    5.8832  -42.7080 C   0  0  0  0  0  0  0  0  0  0  0  0
  -36.6587    5.1099  -42.5007 C   0  0  0  0  0  0  0  0  0  0  0  0
  -37.0290    4.3869  -43.7977 C   0  0  0  0  0  0  0  0  0  0  0  0
  -35.9479    3.4664  -44.1723 N   0  0  0  0  0  0  0  0  0  0  0  0
  -34.6959    4.1916  -44.4226 C   0  0  0  0  0  0  0  0  0  0  0  0
  -36.3899    2.5210  -45.5269 X   0  0  0  0  0  0  0  0  0  0  0  0
  1  2  1  0  0  0  0
  2  3  1  0  0  0  0
  3  4  1  0  0  0  0
  4  5  1  0  0  0  0
  4  9  1  0  0  0  0
  5  6  1  0  0  0  0
  6  7  1  0  0  0  0
  7  8  1  0  0  0  0
  8  9  1  0  0  0  0
  8 10  1  0  0  0  0
M  END
> <Index>
6495

> <PropertyFieldDistance>
nan

$$$$
4712578
BBcorina  12272117083D 1   1.00000     0.00000 
CORINA 4.3.0 0026  30.10.2019
 12 13  0  0  0  0  0  0  0  0999 V2000
  -35.9482    3.4662  -44.1726 N   0  0  0  0  0  0  0  0  0  0  0  0
  -37.0290    4.3868  -43.7976 C   0  0  0  0  0  0  0  0  0  0  0  0
  -36.6588    5.1100  -42.5007 C   0  0  0  0  0  0  0  0  0  0  0  0
  -35.3535    5.8832  -42.7082 C   0  0  0  0  0  0  0  0  0  0  0  0
  -34.2554    4.9094  -43.1440 C   0  0  0  0  0  0  0  0  0  0  0  0
  -32.9629    5.6836  -43.4080 C   0  0  0  0  0  0  0  0  0  0  0  0
  -32.5292    6.4027  -42.1289 C   0  0  0  0  0  0  0  0  0  0  0  0
  -32.2919    5.3744  -41.0211 C   0  0  0  0  0  0  0  0  0  0  0  0
  -33.5848    4.6001  -40.7575 C   0  0  0  0  0  0  0  0  0  0  0  0
  -34.0181    3.8809  -42.0366 C   0  0  0  0  0  0  0  0  0  0  0  0
  -34.6958    4.1912  -44.4228 C   0  0  0  0  0  0  0  0  0  0  0  0
  -36.3906    2.5213  -45.5275 X   0  0  0  0  0  0  0  0  0  0  0  0
  1  2  1  0  0  0  0
  1 11  1  0  0  0  0
  1 12  1  0  0  0  0
  2  3  1  0  0  0  0
  3  4  1  0  0  0  0
  4  5  1  0  0  0  0
  5  6  1  0  0  0  0
  5 10  1  0  0  0  0
  5 11  1  0  0  0  0
  6  7  1  0  0  0  0
  7  8  1  0  0  0  0
  8  9  1  0  0  0  0
  9 10  1  0  0  0  0
M  END
> <Index>
6505

> <PropertyFieldDistance>
nan

$$$$
16770456
BBcorina  12272117083D 1   1.00000     0.00000 
CORINA 4.3.0 0026  30.10.2019
  7  7  0  0  0  0  0  0  0  0999 V2000
  -37.0347    3.2605  -41.8364 C   0  0  0  0  0  0  0  0  0  0  0  0
  -35.8934    2.6204  -42.6293 C   0  0  0  0  0  0  0  0  0  0  0  0
  -34.5460    3.3453  -42.6383 C   0  0  0  0  0  0  0  0  0  0  0  0
  -35.4204    3.3403  -43.8938 C   0  0  0  0  0  0  0  0  0  0  0  0
  -34.9811    2.5097  -45.0230 N   0  0  0  0  0  0  0  0  0  0  0  0
  -34.6719    3.3376  -46.1965 C   0  0  0  0  0  0  0  0  0  0  0  0
  -36.1516    1.3222  -45.4021 X   0  0  0  0  0  0  0  0  0  0  0  0
  1  2  1  0  0  0  0
  2  3  1  0  0  0  0
  2  4  1  0  0  0  0
  3  4  1  0  0  0  0
  4  5  1  0  0  0  0
  5  6  1  0  0  0  0
  5  7  1  0  0  0  0
M  END
> <Index>
6506

> <PropertyFieldDistance>
nan

$$$$
4781572
BBcorina  12272117083D 1   1.00000     0.00000 
CORINA 4.3.0 0026  30.10.2019
 13 13  0  0  0  0  0  0  0  0999 V2000
  -35.0632    2.5845  -46.6501 F   0  0  0  0  0  0  0  0  0  0  0  0
  -36.2594    2.0495  -46.1597 C   0  0  0  0  0  0  0  0  0  0  0  0
  -36.4490    0.7686  -46.6894 F   0  0  0  0  0  0  0  0  0  0  0  0
  -37.3267    2.8722  -46.5355 F   0  0  0  0  0  0  0  0  0  0  0  0
  -36.1927    1.9656  -44.6335 C   0  0  0  0  0  0  0  0  0  0  0  0
  -35.9941    3.3070  -44.0789 N   0  0  0  0  0  0  0  0  0  0  0  0
  -37.0823    4.2178  -43.7046 C   0  0  0  0  0  0  0  0  0  0  0  0
  -36.4356    5.2821  -42.7906 C   0  0  0  0  0  0  0  0  0  0  0  0
  -34.9614    5.2468  -43.2636 C   0  0  0  0  0  0  0  0  0  0  0  0
  -34.0523    5.4406  -42.1262 N   0  0  0  0  0  0  0  0  0  0  0  0
  -34.7918    3.8614  -43.8470 C   0  0  0  0  0  0  0  0  0  0  0  0
  -33.7259    3.3284  -44.0724 O   0  0  0  0  0  0  0  0  0  0  0  0
  -32.5658    6.1137  -42.6376 X   0  0  0  0  0  0  0  0  0  0  0  0
  1  2  1  0  0  0  0
  2  3  1  0  0  0  0
  2  4  1  0  0  0  0
  2  5  1  0  0  0  0
  5  6  1  0  0  0  0
  6  7  1  0  0  0  0
  6 11  1  0  0  0  0
  7  8  1  0  0  0  0
  8  9  1  0  0  0  0
  9 10  1  0  0  0  0
  9 11  1  0  0  0  0
 10 13  1  0  0  0  0
 11 12  2  0  0  0  0
M  END
> <Index>
6507

> <PropertyFieldDistance>
nan

$$$$
5350800
BBcorina  12272117083D 1   1.00000     0.00000 
CORINA 4.3.0 0026  30.10.2019
 10 10  0  0  0  0  0  0  0  0999 V2000
  -36.3041    2.2547  -44.8702 C   0  0  0  0  0  0  0  0  0  0  0  0
  -35.9951    3.5034  -44.1689 N   0  0  0  0  0  0  0  0  0  0  0  0
  -37.1047    4.2653  -43.6097 C   0  0  0  0  0  0  0  0  0  0  0  0
  -36.5989    5.2371  -42.5402 C   0  0  0  0  0  0  0  0  0  0  0  0
  -35.4376    6.0476  -43.1281 C   0  0  0  0  0  0  0  0  0  0  0  0
  -34.2552    5.1030  -43.3572 C   0  0  0  0  0  0  0  0  0  0  0  0
  -34.7168    3.8742  -44.0870 C   0  0  0  0  0  0  0  0  0  0  0  0
  -33.8824    3.1825  -44.6312 O   0  0  0  0  0  0  0  0  0  0  0  0
  -37.6833    6.1454  -42.1444 N   0  0  0  0  0  0  0  0  0  0  0  0
  -38.3345    6.9516  -43.5046 X   0  0  0  0  0  0  0  0  0  0  0  0
  1  2  1  0  0  0  0
  2  3  1  0  0  0  0
  2  7  1  0  0  0  0
  3  4  1  0  0  0  0
  4  5  1  0  0  0  0
  4  9  1  0  0  0  0
  5  6  1  0  0  0  0
  6  7  1  0  0  0  0
  7  8  2  0  0  0  0
  9 10  1  0  0  0  0
M  END
> <Index>
6508

> <PropertyFieldDistance>
nan

$$$$
4840472
BBcorina  12272117083D 1   1.00000     0.00000 
CORINA 4.3.0 0026  30.10.2019
 10 10  0  0  0  0  0  0  0  0999 V2000
  -36.4152    4.6975  -46.1318 C   0  0  0  0  0  0  0  0  0  0  0  0
  -35.5988    4.1537  -44.9576 C   0  0  0  0  0  0  0  0  0  0  0  0
  -34.9701    2.8152  -45.3501 C   0  0  0  0  0  0  0  0  0  0  0  0
  -34.1537    2.2715  -44.1759 C   0  0  0  0  0  0  0  0  0  0  0  0
  -35.0702    2.0696  -42.9675 C   0  0  0  0  0  0  0  0  0  0  0  0
  -34.2863    1.5475  -41.8402 N   0  0  0  0  0  0  0  0  0  0  0  0
  -35.6989    3.4081  -42.5751 C   0  0  0  0  0  0  0  0  0  0  0  0
  -36.6155    3.2062  -41.3667 C   0  0  0  0  0  0  0  0  0  0  0  0
  -36.5153    3.9519  -43.7493 C   0  0  0  0  0  0  0  0  0  0  0  0
  -34.2631   -0.1623  -41.8496 X   0  0  0  0  0  0  0  0  0  0  0  0
  1  2  1  0  0  0  0
  2  3  1  0  0  0  0
  2  9  1  0  0  0  0
  3  4  1  0  0  0  0
  4  5  1  0  0  0  0
  5  6  1  0  0  0  0
  5  7  1  0  0  0  0
  6 10  1  0  0  0  0
  7  8  1  0  0  0  0
  7  9  1  0  0  0  0
M  END
> <Index>
6517

> <PropertyFieldDistance>
nan

$$$$
10156088
BBcorina  12272117083D 1   1.00000     0.00000 
CORINA 4.3.0 0026  30.10.2019
 14 14  0  0  0  0  0  0  0  0999 V2000
  -35.6506    3.2979  -46.5412 F   0  0  0  0  0  0  0  0  0  0  0  0
  -36.5365    2.3753  -45.9746 C   0  0  0  0  0  0  0  0  0  0  0  0
  -36.6108    1.2398  -46.7884 F   0  0  0  0  0  0  0  0  0  0  0  0
  -37.8053    2.9541  -45.8647 F   0  0  0  0  0  0  0  0  0  0  0  0
  -36.0363    1.9750  -44.5851 C   0  0  0  0  0  0  0  0  0  0  0  0
  -34.7203    1.2061  -44.7187 C   0  0  0  0  0  0  0  0  0  0  0  0
  -34.1790    0.9260  -43.3821 N   0  0  0  0  0  0  0  0  0  0  0  0
  -35.8183    3.1821  -43.7768 N   0  0  0  0  0  0  0  0  0  0  0  0
  -36.9827    4.0771  -43.8417 C   0  0  0  0  0  0  0  0  0  0  0  0
  -36.7380    5.2903  -42.9406 C   0  0  0  0  0  0  0  0  0  0  0  0
  -35.5308    5.9422  -43.3445 O   0  0  0  0  0  0  0  0  0  0  0  0
  -34.3764    5.0996  -43.2926 C   0  0  0  0  0  0  0  0  0  0  0  0
  -34.5973    3.8845  -44.1975 C   0  0  0  0  0  0  0  0  0  0  0  0
  -32.7047    0.0658  -43.4859 X   0  0  0  0  0  0  0  0  0  0  0  0
  1  2  1  0  0  0  0
  2  3  1  0  0  0  0
  2  4  1  0  0  0  0
  2  5  1  0  0  0  0
  5  6  1  0  0  0  0
  5  8  1  0  0  0  0
  6  7  1  0  0  0  0
  7 14  1  0  0  0  0
  8  9  1  0  0  0  0
  8 13  1  0  0  0  0
  9 10  1  0  0  0  0
 10 11  1  0  0  0  0
 11 12  1  0  0  0  0
 12 13  1  0  0  0  0
M  END
> <Index>
6533

> <PropertyFieldDistance>
nan

$$$$
4860722
BBcorina  12272117083D 1   1.00000     0.00000 
CORINA 4.3.0 0026  30.10.2019
 11 12  0  0  0  0  0  0  0  0999 V2000
  -36.0396    4.0639  -44.6516 N   0  0  0  0  0  0  0  0  0  0  0  0
  -36.9814    4.0786  -43.5236 C   0  0  0  0  0  0  0  0  0  0  0  0
  -36.5959    5.1993  -42.5552 C   0  0  0  0  0  0  0  0  0  0  0  0
  -35.2197    4.9859  -42.0859 N   0  0  0  0  0  0  0  0  0  0  0  0
  -34.2780    4.9711  -43.2139 C   0  0  0  0  0  0  0  0  0  0  0  0
  -34.6635    3.8504  -44.1823 C   0  0  0  0  0  0  0  0  0  0  0  0
  -34.8381    6.0006  -41.0947 C   0  0  0  0  0  0  0  0  0  0  0  0
  -35.6047    5.8836  -39.7667 C   0  0  0  0  0  0  0  0  0  0  0  0
  -34.2775    6.2111  -39.0624 C   0  0  0  0  0  0  0  0  0  0  0  0
  -33.5678    5.6433  -40.3050 C   0  0  0  0  0  0  0  0  0  0  0  0
  -36.4838    2.8826  -45.8054 X   0  0  0  0  0  0  0  0  0  0  0  0
  1  2  1  0  0  0  0
  1  6  1  0  0  0  0
  1 11  1  0  0  0  0
  2  3  1  0  0  0  0
  3  4  1  0  0  0  0
  4  5  1  0  0  0  0
  4  7  1  0  0  0  0
  5  6  1  0  0  0  0
  7  8  1  0  0  0  0
  7 10  1  0  0  0  0
  8  9  1  0  0  0  0
  9 10  1  0  0  0  0
M  END
> <Index>
6539

> <PropertyFieldDistance>
nan

$$$$
4820796
BBcorina  12272117083D 1   1.00000     0.00000 
CORINA 4.3.0 0026  30.10.2019
 14 15  0  0  0  0  0  0  0  0999 V2000
  -36.3354    2.3075  -44.8787 C   0  0  0  0  0  0  0  0  0  0  0  0
  -35.9454    3.3416  -43.9110 N   0  0  0  0  0  0  0  0  0  0  0  0
  -37.0433    4.2897  -43.6827 C   0  0  0  0  0  0  0  0  0  0  0  0
  -36.6554    5.2625  -42.5668 C   0  0  0  0  0  0  0  0  0  0  0  0
  -35.3831    6.0134  -42.9691 C   0  0  0  0  0  0  0  0  0  0  0  0
  -34.2691    5.0007  -43.2489 C   0  0  0  0  0  0  0  0  0  0  0  0
  -34.7262    4.0356  -44.3451 C   0  0  0  0  0  0  0  0  0  0  0  0
  -34.9734    6.9057  -41.8765 N   0  0  0  0  0  0  0  0  0  0  0  0
  -33.7264    7.6342  -42.2234 C   0  0  0  0  0  0  0  0  0  0  0  0
  -33.7458    8.8484  -41.2611 C   0  0  0  0  0  0  0  0  0  0  0  0
  -35.2444    9.2243  -41.2089 C   0  0  0  0  0  0  0  0  0  0  0  0
  -35.9943    7.9474  -41.6318 C   0  0  0  0  0  0  0  0  0  0  0  0
  -35.6258    9.6113  -39.8442 N   0  0  0  0  0  0  0  0  0  0  0  0
  -35.2471    8.3728  -38.7276 X   0  0  0  0  0  0  0  0  0  0  0  0
  1  2  1  0  0  0  0
  2  3  1  0  0  0  0
  2  7  1  0  0  0  0
  3  4  1  0  0  0  0
  4  5  1  0  0  0  0
  5  6  1  0  0  0  0
  5  8  1  0  0  0  0
  6  7  1  0  0  0  0
  8  9  1  0  0  0  0
  8 12  1  0  0  0  0
  9 10  1  0  0  0  0
 10 11  1  0  0  0  0
 11 12  1  0  0  0  0
 11 13  1  0  0  0  0
 13 14  1  0  0  0  0
M  END
> <Index>
6542

> <PropertyFieldDistance>
nan

$$$$
4784862
BBcorina  12272117083D 1   1.00000     0.00000 
CORINA 4.3.0 0026  30.10.2019
 15 15  0  0  0  0  0  0  0  0999 V2000
  -33.3027    8.7220  -41.4923 C   0  0  0  0  0  0  0  0  0  0  0  0
  -33.5647    7.3205  -41.7669 O   0  0  0  0  0  0  0  0  0  0  0  0
  -34.8163    6.9931  -42.1247 C   0  0  0  0  0  0  0  0  0  0  0  0
  -35.6649    7.8494  -42.2059 O   0  0  0  0  0  0  0  0  0  0  0  0
  -35.1630    5.5578  -42.4253 C   0  0  0  0  0  0  0  0  0  0  0  0
  -36.6430    5.4577  -42.8054 C   0  0  0  0  0  0  0  0  0  0  0  0
  -36.9748    4.0081  -43.1667 C   0  0  0  0  0  0  0  0  0  0  0  0
  -36.1324    3.5770  -44.2896 N   0  0  0  0  0  0  0  0  0  0  0  0
  -36.5188    2.2379  -44.7540 C   0  0  0  0  0  0  0  0  0  0  0  0
  -35.7986    1.9261  -46.0673 C   0  0  0  0  0  0  0  0  0  0  0  0
  -36.2011    0.5314  -46.5510 C   0  0  0  0  0  0  0  0  0  0  0  0
  -35.5096    0.2320  -47.8120 N   0  0  0  0  0  0  0  0  0  0  0  0
  -34.7088    3.6196  -43.9322 C   0  0  0  0  0  0  0  0  0  0  0  0
  -34.3091    5.0575  -43.5937 C   0  0  0  0  0  0  0  0  0  0  0  0
  -35.9323   -1.3214  -48.3887 X   0  0  0  0  0  0  0  0  0  0  0  0
  1  2  1  0  0  0  0
  2  3  1  0  0  0  0
  3  4  2  0  0  0  0
  3  5  1  0  0  0  0
  5  6  1  0  0  0  0
  5 14  1  0  0  0  0
  6  7  1  0  0  0  0
  7  8  1  0  0  0  0
  8  9  1  0  0  0  0
  8 13  1  0  0  0  0
  9 10  1  0  0  0  0
 10 11  1  0  0  0  0
 11 12  1  0  0  0  0
 12 15  1  0  0  0  0
 13 14  1  0  0  0  0
M  END
> <Index>
6550

> <PropertyFieldDistance>
nan

$$$$
4820176
BBcorina  12272117083D 1   1.00000     0.00000 
CORINA 4.3.0 0026  30.10.2019
 15 16  0  0  0  0  0  0  0  0999 V2000
  -35.7853    5.5660  -43.0628 N   0  0  0  0  0  0  0  0  0  0  0  0
  -36.6382    4.8768  -42.0949 C   0  0  0  0  0  0  0  0  0  0  0  0
  -37.2501    3.6327  -42.5997 C   0  0  0  0  0  0  0  0  0  0  0  0
  -36.1406    2.6121  -42.9581 C   0  0  0  0  0  0  0  0  0  0  0  0
  -35.4200    3.0716  -44.1255 N   0  0  0  0  0  0  0  0  0  0  0  0
  -34.2354    3.9512  -44.0430 C   0  0  0  0  0  0  0  0  0  0  0  0
  -34.4291    5.0642  -42.9960 C   0  0  0  0  0  0  0  0  0  0  0  0
  -35.8476    2.6798  -45.3420 C   0  0  0  0  0  0  0  0  0  0  0  0
  -35.2971    3.0970  -46.3440 O   0  0  0  0  0  0  0  0  0  0  0  0
  -36.9760    1.7514  -45.4582 C   0  0  0  0  0  0  0  0  0  0  0  0
  -37.1842    0.8825  -46.4922 C   0  0  0  0  0  0  0  0  0  0  0  0
  -38.3209    0.1236  -46.3439 C   0  0  0  0  0  0  0  0  0  0  0  0
  -39.0261    0.3684  -45.2333 C   0  0  0  0  0  0  0  0  0  0  0  0
  -38.2822    1.5825  -44.2934 S   0  0  0  0  0  0  0  0  0  0  0  0
  -35.8253    7.2580  -42.8195 X   0  0  0  0  0  0  0  0  0  0  0  0
  1  2  1  0  0  0  0
  1  7  1  0  0  0  0
  1 15  1  0  0  0  0
  2  3  1  0  0  0  0
  3  4  1  0  0  0  0
  4  5  1  0  0  0  0
  5  6  1  0  0  0  0
  5  8  1  0  0  0  0
  6  7  1  0  0  0  0
  8  9  2  0  0  0  0
  8 10  1  0  0  0  0
 10 11  2  0  0  0  0
 10 14  1  0  0  0  0
 11 12  1  0  0  0  0
 12 13  2  0  0  0  0
 13 14  1  0  0  0  0
M  END
> <Index>
6551

> <PropertyFieldDistance>
nan

$$$$
4821766
BBcorina  12272117083D 1   1.00000     0.00000 
CORINA 4.3.0 0026  30.10.2019
 14 14  0  0  0  0  0  0  0  0999 V2000
  -32.6507    5.4384  -42.5661 C   0  0  0  0  0  0  0  0  0  0  0  0
  -34.0523    5.4406  -42.1262 N   0  0  0  0  0  0  0  0  0  0  0  0
  -34.9614    5.2468  -43.2636 C   0  0  0  0  0  0  0  0  0  0  0  0
  -36.4356    5.2821  -42.7906 C   0  0  0  0  0  0  0  0  0  0  0  0
  -37.0823    4.2178  -43.7046 C   0  0  0  0  0  0  0  0  0  0  0  0
  -35.9941    3.3070  -44.0789 N   0  0  0  0  0  0  0  0  0  0  0  0
  -36.1927    1.9656  -44.6335 C   0  0  0  0  0  0  0  0  0  0  0  0
  -36.2594    2.0495  -46.1597 C   0  0  0  0  0  0  0  0  0  0  0  0
  -35.0632    2.5845  -46.6501 F   0  0  0  0  0  0  0  0  0  0  0  0
  -36.4490    0.7686  -46.6894 F   0  0  0  0  0  0  0  0  0  0  0  0
  -37.3267    2.8722  -46.5355 F   0  0  0  0  0  0  0  0  0  0  0  0
  -34.7918    3.8614  -43.8470 C   0  0  0  0  0  0  0  0  0  0  0  0
  -33.7258    3.3287  -44.0730 O   0  0  0  0  0  0  0  0  0  0  0  0
  -34.3179    4.2572  -40.9208 X   0  0  0  0  0  0  0  0  0  0  0  0
  1  2  1  0  0  0  0
  2  3  1  0  0  0  0
  2 14  1  0  0  0  0
  3  4  1  0  0  0  0
  3 12  1  0  0  0  0
  4  5  1  0  0  0  0
  5  6  1  0  0  0  0
  6  7  1  0  0  0  0
  6 12  1  0  0  0  0
  7  8  1  0  0  0  0
  8  9  1  0  0  0  0
  8 10  1  0  0  0  0
  8 11  1  0  0  0  0
 12 13  2  0  0  0  0
M  END
> <Index>
6552

> <PropertyFieldDistance>
nan

$$$$
6407072
BBcorina  12272117083D 1   1.00000     0.00000 
CORINA 4.3.0 0026  30.10.2019
 13 14  0  0  0  0  0  0  0  0999 V2000
  -35.9201   -0.2044  -47.3899 C   0  0  0  0  0  0  0  0  0  0  0  0
  -36.3392    0.9046  -46.5292 N   0  0  0  0  0  0  0  0  0  0  0  0
  -35.5987    1.4764  -45.5427 C   0  0  0  0  0  0  0  0  0  0  0  0
  -36.3473    2.4637  -44.9890 C   0  0  0  0  0  0  0  0  0  0  0  0
  -37.5818    2.4916  -45.6533 C   0  0  0  0  0  0  0  0  0  0  0  0
  -37.5743    1.5639  -46.5763 N   0  0  0  0  0  0  0  0  0  0  0  0
  -35.9561    3.3065  -43.9310 N   0  0  0  0  0  0  0  0  0  0  0  0
  -37.0236    4.2583  -43.5936 C   0  0  0  0  0  0  0  0  0  0  0  0
  -36.5912    5.1003  -42.3910 C   0  0  0  0  0  0  0  0  0  0  0  0
  -35.3432    5.8059  -42.7135 N   0  0  0  0  0  0  0  0  0  0  0  0
  -34.2756    4.8540  -43.0510 C   0  0  0  0  0  0  0  0  0  0  0  0
  -34.7080    4.0119  -44.2537 C   0  0  0  0  0  0  0  0  0  0  0  0
  -34.8680    6.8293  -41.4287 X   0  0  0  0  0  0  0  0  0  0  0  0
  1  2  1  0  0  0  0
  2  3  1  0  0  0  0
  2  6  1  0  0  0  0
  3  4  2  0  0  0  0
  4  5  1  0  0  0  0
  4  7  1  0  0  0  0
  5  6  2  0  0  0  0
  7  8  1  0  0  0  0
  7 12  1  0  0  0  0
  8  9  1  0  0  0  0
  9 10  1  0  0  0  0
 10 11  1  0  0  0  0
 10 13  1  0  0  0  0
 11 12  1  0  0  0  0
M  END
> <Index>
6554

> <PropertyFieldDistance>
nan

$$$$
4836204
BBcorina  12272117083D 1   1.00000     0.00000 
CORINA 4.3.0 0026  30.10.2019
 10 10  0  0  0  0  0  0  0  0999 V2000
  -37.6174    2.0721  -45.3514 N   0  0  0  0  0  0  0  0  0  0  0  0
  -36.3443    2.4417  -45.1086 C   0  0  0  0  0  0  0  0  0  0  0  0
  -35.4356    1.9488  -45.7488 O   0  0  0  0  0  0  0  0  0  0  0  0
  -36.0783    3.3576  -44.1563 N   0  0  0  0  0  0  0  0  0  0  0  0
  -37.0791    4.0329  -43.3103 C   0  0  0  0  0  0  0  0  0  0  0  0
  -36.4013    5.3555  -42.8733 C   0  0  0  0  0  0  0  0  0  0  0  0
  -34.9306    4.9020  -42.6771 C   0  0  0  0  0  0  0  0  0  0  0  0
  -34.7421    3.8494  -43.7899 C   0  0  0  0  0  0  0  0  0  0  0  0
  -34.0089    6.0299  -42.8671 N   0  0  0  0  0  0  0  0  0  0  0  0
  -34.2528    6.7707  -44.3890 X   0  0  0  0  0  0  0  0  0  0  0  0
  1  2  1  0  0  0  0
  2  3  2  0  0  0  0
  2  4  1  0  0  0  0
  4  5  1  0  0  0  0
  4  8  1  0  0  0  0
  5  6  1  0  0  0  0
  6  7  1  0  0  0  0
  7  8  1  0  0  0  0
  7  9  1  0  0  0  0
  9 10  1  0  0  0  0
M  END
> <Index>
6555

> <PropertyFieldDistance>
nan

$$$$
4973854
BBcorina  12272117083D 1   1.00000     0.00000 
CORINA 4.3.0 0026  30.10.2019
 14 15  0  0  0  0  0  0  0  0999 V2000
  -37.2026   -1.1832  -47.2553 C   0  0  0  0  0  0  0  0  0  0  0  0
  -36.7775   -0.2619  -46.1101 C   0  0  0  0  0  0  0  0  0  0  0  0
  -35.6086    0.6135  -46.5668 C   0  0  0  0  0  0  0  0  0  0  0  0
  -35.1836    1.5348  -45.4216 C   0  0  0  0  0  0  0  0  0  0  0  0
  -36.3611    2.4252  -45.0196 C   0  0  0  0  0  0  0  0  0  0  0  0
  -37.5298    1.5499  -44.5629 C   0  0  0  0  0  0  0  0  0  0  0  0
  -37.9549    0.6286  -45.7082 C   0  0  0  0  0  0  0  0  0  0  0  0
  -35.9529    3.3098  -43.9201 N   0  0  0  0  0  0  0  0  0  0  0  0
  -37.0213    4.2620  -43.5860 C   0  0  0  0  0  0  0  0  0  0  0  0
  -36.5887    5.1099  -42.3875 C   0  0  0  0  0  0  0  0  0  0  0  0
  -35.3417    5.8153  -42.7143 N   0  0  0  0  0  0  0  0  0  0  0  0
  -34.2734    4.8631  -43.0484 C   0  0  0  0  0  0  0  0  0  0  0  0
  -34.7059    4.0152  -44.2469 C   0  0  0  0  0  0  0  0  0  0  0  0
  -34.8666    6.8450  -41.4344 X   0  0  0  0  0  0  0  0  0  0  0  0
  1  2  1  0  0  0  0
  2  3  1  0  0  0  0
  2  7  1  0  0  0  0
  3  4  1  0  0  0  0
  4  5  1  0  0  0  0
  5  6  1  0  0  0  0
  5  8  1  0  0  0  0
  6  7  1  0  0  0  0
  8  9  1  0  0  0  0
  8 13  1  0  0  0  0
  9 10  1  0  0  0  0
 10 11  1  0  0  0  0
 11 12  1  0  0  0  0
 11 14  1  0  0  0  0
 12 13  1  0  0  0  0
M  END
> <Index>
6559

> <PropertyFieldDistance>
nan

$$$$
4974264
BBcorina  12272117083D 1   1.00000     0.00000 
CORINA 4.3.0 0026  30.10.2019
 15 15  0  0  0  0  0  0  0  0999 V2000
  -39.9933   -1.2127  -47.8048 C   0  0  0  0  0  0  0  0  0  0  0  0
  -38.5491   -1.0000  -47.3463 C   0  0  0  0  0  0  0  0  0  0  0  0
  -38.4345    0.2738  -46.7088 O   0  0  0  0  0  0  0  0  0  0  0  0
  -37.1181    0.5731  -46.2405 C   0  0  0  0  0  0  0  0  0  0  0  0
  -37.1133    1.9529  -45.5795 C   0  0  0  0  0  0  0  0  0  0  0  0
  -35.7038    2.2733  -45.0780 C   0  0  0  0  0  0  0  0  0  0  0  0
  -35.6992    3.5981  -44.4433 N   0  0  0  0  0  0  0  0  0  0  0  0
  -36.8443    3.7513  -43.5370 C   0  0  0  0  0  0  0  0  0  0  0  0
  -36.8892    5.1866  -43.0077 C   0  0  0  0  0  0  0  0  0  0  0  0
  -35.5842    5.4937  -42.2680 C   0  0  0  0  0  0  0  0  0  0  0  0
  -35.5972    6.8889  -41.8082 N   0  0  0  0  0  0  0  0  0  0  0  0
  -34.4044    5.2798  -43.2202 C   0  0  0  0  0  0  0  0  0  0  0  0
  -34.5137    6.2531  -44.3958 C   0  0  0  0  0  0  0  0  0  0  0  0
  -34.4315    3.8418  -43.7433 C   0  0  0  0  0  0  0  0  0  0  0  0
  -36.1731    7.9328  -43.0340 X   0  0  0  0  0  0  0  0  0  0  0  0
  1  2  1  0  0  0  0
  2  3  1  0  0  0  0
  3  4  1  0  0  0  0
  4  5  1  0  0  0  0
  5  6  1  0  0  0  0
  6  7  1  0  0  0  0
  7  8  1  0  0  0  0
  7 14  1  0  0  0  0
  8  9  1  0  0  0  0
  9 10  1  0  0  0  0
 10 11  1  0  0  0  0
 10 12  1  0  0  0  0
 11 15  1  0  0  0  0
 12 13  1  0  0  0  0
 12 14  1  0  0  0  0
M  END
> <Index>
6561

> <PropertyFieldDistance>
nan

$$$$
4833956
BBcorina  12272117083D 1   1.00000     0.00000 
CORINA 4.3.0 0026  30.10.2019
 12 12  0  0  0  0  0  0  0  0999 V2000
  -35.1173    0.6715  -44.4727 C   0  0  0  0  0  0  0  0  0  0  0  0
  -35.5846    1.5785  -45.6128 C   0  0  0  0  0  0  0  0  0  0  0  0
  -36.6675    2.5286  -45.0975 C   0  0  0  0  0  0  0  0  0  0  0  0
  -36.1051    3.3890  -44.0481 N   0  0  0  0  0  0  0  0  0  0  0  0
  -37.0920    4.3760  -43.5918 C   0  0  0  0  0  0  0  0  0  0  0  0
  -36.5239    5.1557  -42.4037 C   0  0  0  0  0  0  0  0  0  0  0  0
  -35.2321    5.8579  -42.8311 C   0  0  0  0  0  0  0  0  0  0  0  0
  -34.2391    4.8129  -43.3472 C   0  0  0  0  0  0  0  0  0  0  0  0
  -34.8734    4.0432  -44.5079 C   0  0  0  0  0  0  0  0  0  0  0  0
  -36.1318    0.7559  -46.7000 N   0  0  0  0  0  0  0  0  0  0  0  0
  -35.0976   -0.1171  -47.2713 C   0  0  0  0  0  0  0  0  0  0  0  0
  -36.8447    1.7332  -47.9086 X   0  0  0  0  0  0  0  0  0  0  0  0
  1  2  1  0  0  0  0
  2  3  1  0  0  0  0
  2 10  1  0  0  0  0
  3  4  1  0  0  0  0
  4  5  1  0  0  0  0
  4  9  1  0  0  0  0
  5  6  1  0  0  0  0
  6  7  1  0  0  0  0
  7  8  1  0  0  0  0
  8  9  1  0  0  0  0
 10 11  1  0  0  0  0
 10 12  1  0  0  0  0
M  END
> <Index>
6565

> <PropertyFieldDistance>
nan

$$$$
7425632
BBcorina  12272117083D 1   1.00000     0.00000 
CORINA 4.3.0 0026  30.10.2019
 15 15  0  0  0  0  0  0  0  0999 V2000
  -35.3571    0.6854  -44.8926 O   0  0  0  0  0  0  0  0  0  0  0  0
  -35.6242    1.7253  -45.8357 C   0  0  0  0  0  0  0  0  0  0  0  0
  -36.6734    2.6787  -45.2601 C   0  0  0  0  0  0  0  0  0  0  0  0
  -36.1442    3.3140  -44.0460 N   0  0  0  0  0  0  0  0  0  0  0  0
  -37.0909    4.3042  -43.5142 C   0  0  0  0  0  0  0  0  0  0  0  0
  -36.5394    4.8841  -42.2096 C   0  0  0  0  0  0  0  0  0  0  0  0
  -35.2284    5.4972  -42.4647 N   0  0  0  0  0  0  0  0  0  0  0  0
  -34.6991    6.1325  -41.2506 C   0  0  0  0  0  0  0  0  0  0  0  0
  -33.2417    6.5375  -41.4807 C   0  0  0  0  0  0  0  0  0  0  0  0
  -32.6904    7.1992  -40.2162 C   0  0  0  0  0  0  0  0  0  0  0  0
  -31.2330    7.6042  -40.4464 C   0  0  0  0  0  0  0  0  0  0  0  0
  -30.7038    8.2395  -39.2322 N   0  0  0  0  0  0  0  0  0  0  0  0
  -34.2817    4.5069  -42.9965 C   0  0  0  0  0  0  0  0  0  0  0  0
  -34.8332    3.9271  -44.3011 C   0  0  0  0  0  0  0  0  0  0  0  0
  -29.0735    8.7085  -39.4469 X   0  0  0  0  0  0  0  0  0  0  0  0
  1  2  1  0  0  0  0
  2  3  1  0  0  0  0
  3  4  1  0  0  0  0
  4  5  1  0  0  0  0
  4 14  1  0  0  0  0
  5  6  1  0  0  0  0
  6  7  1  0  0  0  0
  7  8  1  0  0  0  0
  7 13  1  0  0  0  0
  8  9  1  0  0  0  0
  9 10  1  0  0  0  0
 10 11  1  0  0  0  0
 11 12  1  0  0  0  0
 12 15  1  0  0  0  0
 13 14  1  0  0  0  0
M  END
> <Index>
6567

> <PropertyFieldDistance>
nan

$$$$
4833598
BBcorina  12272117083D 1   1.00000     0.00000 
CORINA 4.3.0 0026  30.10.2019
 16 17  0  0  0  0  0  0  0  0999 V2000
  -36.1223    1.2812  -47.1431 N   0  0  0  0  0  0  0  0  0  0  0  0
  -35.5932    1.8780  -45.9094 C   0  0  0  0  0  0  0  0  0  0  0  0
  -36.6802    2.7258  -45.2460 C   0  0  0  0  0  0  0  0  0  0  0  0
  -36.1511    3.3227  -44.0124 N   0  0  0  0  0  0  0  0  0  0  0  0
  -37.0782    4.3266  -43.4735 C   0  0  0  0  0  0  0  0  0  0  0  0
  -36.5808    4.7918  -42.1008 C   0  0  0  0  0  0  0  0  0  0  0  0
  -35.1872    5.2418  -42.2368 N   0  0  0  0  0  0  0  0  0  0  0  0
  -34.2264    4.3422  -42.8931 C   0  0  0  0  0  0  0  0  0  0  0  0
  -34.8166    3.8947  -44.2347 C   0  0  0  0  0  0  0  0  0  0  0  0
  -34.8007    6.4464  -41.7720 C   0  0  0  0  0  0  0  0  0  0  0  0
  -35.6064    7.1753  -41.2329 O   0  0  0  0  0  0  0  0  0  0  0  0
  -33.3676    6.8876  -41.9219 C   0  0  0  0  0  0  0  0  0  0  0  0
  -33.0889    8.2840  -41.3411 C   0  0  0  0  0  0  0  0  0  0  0  0
  -31.7590    7.7151  -40.8190 C   0  0  0  0  0  0  0  0  0  0  0  0
  -32.4353    6.3341  -40.8313 C   0  0  0  0  0  0  0  0  0  0  0  0
  -34.9366    0.3231  -47.9179 X   0  0  0  0  0  0  0  0  0  0  0  0
  1  2  1  0  0  0  0
  1 16  1  0  0  0  0
  2  3  1  0  0  0  0
  3  4  1  0  0  0  0
  4  5  1  0  0  0  0
  4  9  1  0  0  0  0
  5  6  1  0  0  0  0
  6  7  1  0  0  0  0
  7  8  1  0  0  0  0
  7 10  1  0  0  0  0
  8  9  1  0  0  0  0
 10 11  2  0  0  0  0
 10 12  1  0  0  0  0
 12 13  1  0  0  0  0
 12 15  1  0  0  0  0
 13 14  1  0  0  0  0
 14 15  1  0  0  0  0
M  END
> <Index>
6581

> <PropertyFieldDistance>
nan

$$$$
4834026
BBcorina  12272117083D 1   1.00000     0.00000 
CORINA 4.3.0 0026  30.10.2019
 14 14  0  0  0  0  0  0  0  0999 V2000
  -34.3062   -0.7992  -44.9312 C   0  0  0  0  0  0  0  0  0  0  0  0
  -35.5484    0.0561  -45.1886 C   0  0  0  0  0  0  0  0  0  0  0  0
  -35.9917   -0.1131  -46.6431 C   0  0  0  0  0  0  0  0  0  0  0  0
  -35.2357    1.4516  -44.9371 O   0  0  0  0  0  0  0  0  0  0  0  0
  -36.2422    2.2357  -44.5073 C   0  0  0  0  0  0  0  0  0  0  0  0
  -37.3516    1.7667  -44.3466 O   0  0  0  0  0  0  0  0  0  0  0  0
  -36.0194    3.5408  -44.2551 N   0  0  0  0  0  0  0  0  0  0  0  0
  -37.1076    4.4090  -43.7855 C   0  0  0  0  0  0  0  0  0  0  0  0
  -36.6603    5.1074  -42.4976 C   0  0  0  0  0  0  0  0  0  0  0  0
  -35.3387    5.8369  -42.7501 C   0  0  0  0  0  0  0  0  0  0  0  0
  -34.2632    4.8239  -43.1488 C   0  0  0  0  0  0  0  0  0  0  0  0
  -34.6820    4.1209  -44.4387 C   0  0  0  0  0  0  0  0  0  0  0  0
  -34.9235    6.5350  -41.5262 N   0  0  0  0  0  0  0  0  0  0  0  0
  -34.5989    5.4243  -40.2672 X   0  0  0  0  0  0  0  0  0  0  0  0
  1  2  1  0  0  0  0
  2  3  1  0  0  0  0
  2  4  1  0  0  0  0
  4  5  1  0  0  0  0
  5  6  2  0  0  0  0
  5  7  1  0  0  0  0
  7  8  1  0  0  0  0
  7 12  1  0  0  0  0
  8  9  1  0  0  0  0
  9 10  1  0  0  0  0
 10 11  1  0  0  0  0
 10 13  1  0  0  0  0
 11 12  1  0  0  0  0
 13 14  1  0  0  0  0
M  END
> <Index>
6589

> <PropertyFieldDistance>
nan

$$$$
4860316
BBcorina  12272117083D 1   1.00000     0.00000 
CORINA 4.3.0 0026  30.10.2019
 12 12  0  0  0  0  0  0  0  0999 V2000
  -39.3324    3.6029  -42.8391 C   0  0  0  0  0  0  0  0  0  0  0  0
  -38.3673    3.8298  -44.0044 C   0  0  0  0  0  0  0  0  0  0  0  0
  -36.9280    3.8075  -43.4863 C   0  0  0  0  0  0  0  0  0  0  0  0
  -36.7047    4.9968  -42.5495 C   0  0  0  0  0  0  0  0  0  0  0  0
  -35.2576    4.9818  -42.0493 C   0  0  0  0  0  0  0  0  0  0  0  0
  -34.3100    5.0244  -43.2513 C   0  0  0  0  0  0  0  0  0  0  0  0
  -34.6026    3.8342  -44.1679 C   0  0  0  0  0  0  0  0  0  0  0  0
  -35.9984    3.8948  -44.6198 N   0  0  0  0  0  0  0  0  0  0  0  0
  -36.2768    2.8466  -45.6106 C   0  0  0  0  0  0  0  0  0  0  0  0
  -36.2649    1.4795  -44.9237 C   0  0  0  0  0  0  0  0  0  0  0  0
  -36.4114    0.4227  -45.9336 N   0  0  0  0  0  0  0  0  0  0  0  0
  -36.4030   -1.1250  -45.2067 X   0  0  0  0  0  0  0  0  0  0  0  0
  1  2  1  0  0  0  0
  2  3  1  0  0  0  0
  3  4  1  0  0  0  0
  3  8  1  0  0  0  0
  4  5  1  0  0  0  0
  5  6  1  0  0  0  0
  6  7  1  0  0  0  0
  7  8  1  0  0  0  0
  8  9  1  0  0  0  0
  9 10  1  0  0  0  0
 10 11  1  0  0  0  0
 11 12  1  0  0  0  0
M  END
> <Index>
6595

> <PropertyFieldDistance>
nan

$$$$
6107996
BBcorina  12272117083D 1   1.00000     0.00000 
CORINA 4.3.0 0026  30.10.2019
 10 10  0  0  0  0  0  0  0  0999 V2000
  -37.3349    4.1627  -44.9780 C   0  0  0  0  0  0  0  0  0  0  0  0
  -36.7982    3.0665  -44.0554 C   0  0  0  0  0  0  0  0  0  0  0  0
  -36.5868    3.6600  -42.6494 C   0  0  0  0  0  0  0  0  0  0  0  0
  -35.6885    2.8082  -41.7939 C   0  0  0  0  0  0  0  0  0  0  0  0
  -34.2471    3.3366  -41.9225 C   0  0  0  0  0  0  0  0  0  0  0  0
  -33.5931    2.8808  -43.1402 C   0  0  0  0  0  0  0  0  0  0  0  0
  -34.3106    3.3776  -44.4119 C   0  0  0  0  0  0  0  0  0  0  0  0
  -35.5032    2.4951  -44.6636 C   0  0  0  0  0  0  0  0  0  0  0  0
  -35.6852    2.3443  -46.1135 N   0  0  0  0  0  0  0  0  0  0  0  0
  -34.8136    0.9967  -46.7036 X   0  0  0  0  0  0  0  0  0  0  0  0
  1  2  1  0  0  0  0
  2  3  1  0  0  0  0
  2  8  1  0  0  0  0
  3  4  1  0  0  0  0
  4  5  1  0  0  0  0
  5  6  1  0  0  0  0
  6  7  1  0  0  0  0
  7  8  1  0  0  0  0
  8  9  1  0  0  0  0
  9 10  1  0  0  0  0
M  END
> <Index>
6597

> <PropertyFieldDistance>
nan

$$$$
4839648
BBcorina  12272117083D 1   1.00000     0.00000 
CORINA 4.3.0 0026  30.10.2019
 11 11  0  0  0  0  0  0  0  0999 V2000
  -36.7233    9.2780  -39.5668 C   0  0  0  0  0  0  0  0  0  0  0  0
  -35.6266    8.2457  -39.8362 C   0  0  0  0  0  0  0  0  0  0  0  0
  -35.9144    7.5513  -41.0515 O   0  0  0  0  0  0  0  0  0  0  0  0
  -34.9460    6.5589  -41.3971 C   0  0  0  0  0  0  0  0  0  0  0  0
  -35.3535    5.8833  -42.7079 C   0  0  0  0  0  0  0  0  0  0  0  0
  -36.6585    5.1099  -42.5008 C   0  0  0  0  0  0  0  0  0  0  0  0
  -37.0291    4.3869  -43.7977 C   0  0  0  0  0  0  0  0  0  0  0  0
  -35.9480    3.4664  -44.1723 N   0  0  0  0  0  0  0  0  0  0  0  0
  -34.6958    4.1916  -44.4226 C   0  0  0  0  0  0  0  0  0  0  0  0
  -34.2559    4.9088  -43.1442 C   0  0  0  0  0  0  0  0  0  0  0  0
  -36.3899    2.5211  -45.5270 X   0  0  0  0  0  0  0  0  0  0  0  0
  1  2  1  0  0  0  0
  2  3  1  0  0  0  0
  3  4  1  0  0  0  0
  4  5  1  0  0  0  0
  5  6  1  0  0  0  0
  5 10  1  0  0  0  0
  6  7  1  0  0  0  0
  7  8  1  0  0  0  0
  8  9  1  0  0  0  0
  8 11  1  0  0  0  0
  9 10  1  0  0  0  0
M  END
> <Index>
6604

> <PropertyFieldDistance>
nan

$$$$
7866866
BBcorina  12272117083D 1   1.00000     0.00000 
CORINA 4.3.0 0026  30.10.2019
 13 13  0  0  0  0  0  0  0  0999 V2000
  -34.7882    5.5414  -40.3785 C   0  0  0  0  0  0  0  0  0  0  0  0
  -34.9622    6.5319  -41.4494 N   0  0  0  0  0  0  0  0  0  0  0  0
  -35.9369    7.5604  -41.0619 C   0  0  0  0  0  0  0  0  0  0  0  0
  -35.3784    8.3790  -39.8963 C   0  0  0  0  0  0  0  0  0  0  0  0
  -36.3936    9.4502  -39.4927 C   0  0  0  0  0  0  0  0  0  0  0  0
  -35.8719   10.2148  -38.4040 O   0  0  0  0  0  0  0  0  0  0  0  0
  -35.3535    5.8833  -42.7079 C   0  0  0  0  0  0  0  0  0  0  0  0
  -36.6585    5.1099  -42.5008 C   0  0  0  0  0  0  0  0  0  0  0  0
  -37.0291    4.3869  -43.7977 C   0  0  0  0  0  0  0  0  0  0  0  0
  -35.9480    3.4664  -44.1723 N   0  0  0  0  0  0  0  0  0  0  0  0
  -34.6958    4.1916  -44.4226 C   0  0  0  0  0  0  0  0  0  0  0  0
  -34.2559    4.9088  -43.1442 C   0  0  0  0  0  0  0  0  0  0  0  0
  -36.3899    2.5211  -45.5270 X   0  0  0  0  0  0  0  0  0  0  0  0
  1  2  1  0  0  0  0
  2  3  1  0  0  0  0
  2  7  1  0  0  0  0
  3  4  1  0  0  0  0
  4  5  1  0  0  0  0
  5  6  1  0  0  0  0
  7  8  1  0  0  0  0
  7 12  1  0  0  0  0
  8  9  1  0  0  0  0
  9 10  1  0  0  0  0
 10 11  1  0  0  0  0
 10 13  1  0  0  0  0
 11 12  1  0  0  0  0
M  END
> <Index>
6607

> <PropertyFieldDistance>
nan

$$$$
4933706
BBcorina  12272117083D 1   1.00000     0.00000 
CORINA 4.3.0 0026  30.10.2019
 11 11  0  0  0  0  0  0  0  0999 V2000
  -35.9180    1.9572  -46.1221 C   0  0  0  0  0  0  0  0  0  0  0  0
  -36.4445    2.0261  -44.6873 C   0  0  0  0  0  0  0  0  0  0  0  0
  -35.7987    0.9179  -43.8532 C   0  0  0  0  0  0  0  0  0  0  0  0
  -36.1128    3.3300  -44.1075 N   0  0  0  0  0  0  0  0  0  0  0  0
  -37.1050    4.2939  -43.6143 C   0  0  0  0  0  0  0  0  0  0  0  0
  -36.3143    5.2786  -42.7246 C   0  0  0  0  0  0  0  0  0  0  0  0
  -34.8908    5.1678  -43.3182 C   0  0  0  0  0  0  0  0  0  0  0  0
  -33.8816    5.2601  -42.2547 N   0  0  0  0  0  0  0  0  0  0  0  0
  -34.8614    3.7975  -43.9585 C   0  0  0  0  0  0  0  0  0  0  0  0
  -33.8552    3.2071  -44.2899 O   0  0  0  0  0  0  0  0  0  0  0  0
  -34.0812    4.0056  -41.1101 X   0  0  0  0  0  0  0  0  0  0  0  0
  1  2  1  0  0  0  0
  2  3  1  0  0  0  0
  2  4  1  0  0  0  0
  4  5  1  0  0  0  0
  4  9  1  0  0  0  0
  5  6  1  0  0  0  0
  6  7  1  0  0  0  0
  7  8  1  0  0  0  0
  7  9  1  0  0  0  0
  8 11  1  0  0  0  0
  9 10  2  0  0  0  0
M  END
> <Index>
6609

> <PropertyFieldDistance>
nan

$$$$
4904586
BBcorina  12272117083D 1   1.00000     0.00000 
CORINA 4.3.0 0026  30.10.2019
 11 11  0  0  0  0  0  0  0  0999 V2000
  -36.5033    0.8439  -46.7794 N   0  0  0  0  0  0  0  0  0  0  0  0
  -36.3183    2.1598  -46.1532 C   0  0  0  0  0  0  0  0  0  0  0  0
  -36.1742    1.9886  -44.6397 C   0  0  0  0  0  0  0  0  0  0  0  0
  -35.9897    3.3009  -44.0152 N   0  0  0  0  0  0  0  0  0  0  0  0
  -37.0136    4.0507  -43.5888 C   0  0  0  0  0  0  0  0  0  0  0  0
  -38.1849    3.7476  -43.6639 O   0  0  0  0  0  0  0  0  0  0  0  0
  -36.4771    5.3366  -42.9987 C   0  0  0  0  0  0  0  0  0  0  0  0
  -34.9495    5.1986  -43.1598 C   0  0  0  0  0  0  0  0  0  0  0  0
  -34.7831    3.8466  -43.8187 C   0  0  0  0  0  0  0  0  0  0  0  0
  -33.7250    3.3392  -44.1231 O   0  0  0  0  0  0  0  0  0  0  0  0
  -36.6688    0.9900  -48.4751 X   0  0  0  0  0  0  0  0  0  0  0  0
  1  2  1  0  0  0  0
  1 11  1  0  0  0  0
  2  3  1  0  0  0  0
  3  4  1  0  0  0  0
  4  5  1  0  0  0  0
  4  9  1  0  0  0  0
  5  6  2  0  0  0  0
  5  7  1  0  0  0  0
  7  8  1  0  0  0  0
  8  9  1  0  0  0  0
  9 10  2  0  0  0  0
M  END
> <Index>
6610

> <PropertyFieldDistance>
nan

$$$$
4836218
BBcorina  12272117083D 1   1.00000     0.00000 
CORINA 4.3.0 0026  30.10.2019
 12 12  0  0  0  0  0  0  0  0999 V2000
  -38.0241   -0.4770  -46.2365 C   0  0  0  0  0  0  0  0  0  0  0  0
  -37.0601    0.6836  -46.4905 C   0  0  0  0  0  0  0  0  0  0  0  0
  -36.9083    1.5097  -45.2116 C   0  0  0  0  0  0  0  0  0  0  0  0
  -35.8513    2.5946  -45.4276 C   0  0  0  0  0  0  0  0  0  0  0  0
  -35.7056    3.3877  -44.1998 N   0  0  0  0  0  0  0  0  0  0  0  0
  -36.9305    4.1521  -43.9179 C   0  0  0  0  0  0  0  0  0  0  0  0
  -36.7563    4.9154  -42.6022 C   0  0  0  0  0  0  0  0  0  0  0  0
  -35.6022    5.7551  -42.6923 O   0  0  0  0  0  0  0  0  0  0  0  0
  -34.3921    5.0431  -42.9652 C   0  0  0  0  0  0  0  0  0  0  0  0
  -34.5413    4.2811  -44.2847 C   0  0  0  0  0  0  0  0  0  0  0  0
  -37.5908    1.5352  -47.5633 N   0  0  0  0  0  0  0  0  0  0  0  0
  -37.0370    1.0097  -49.0935 X   0  0  0  0  0  0  0  0  0  0  0  0
  1  2  1  0  0  0  0
  2  3  1  0  0  0  0
  2 11  1  0  0  0  0
  3  4  1  0  0  0  0
  4  5  1  0  0  0  0
  5  6  1  0  0  0  0
  5 10  1  0  0  0  0
  6  7  1  0  0  0  0
  7  8  1  0  0  0  0
  8  9  1  0  0  0  0
  9 10  1  0  0  0  0
 11 12  1  0  0  0  0
M  END
> <Index>
6621

> <PropertyFieldDistance>
nan

$$$$
4823378
BBcorina  12272117083D 1   1.00000     0.00000 
CORINA 4.3.0 0026  30.10.2019
 16 17  0  0  0  0  0  0  0  0999 V2000
  -39.1018    0.1018  -47.9419 C   0  0  0  0  0  0  0  0  0  0  0  0
  -39.2244    0.5608  -46.4875 C   0  0  0  0  0  0  0  0  0  0  0  0
  -37.8581    0.9041  -45.9522 C   0  0  0  0  0  0  0  0  0  0  0  0
  -37.6168    2.1450  -45.3967 C   0  0  0  0  0  0  0  0  0  0  0  0
  -36.3335    2.4189  -44.9186 C   0  0  0  0  0  0  0  0  0  0  0  0
  -35.3995    1.4765  -45.0064 N   0  0  0  0  0  0  0  0  0  0  0  0
  -35.6757    0.3037  -45.5398 C   0  0  0  0  0  0  0  0  0  0  0  0
  -36.8748    0.0165  -46.0043 N   0  0  0  0  0  0  0  0  0  0  0  0
  -36.0398    3.6506  -44.3566 N   0  0  0  0  0  0  0  0  0  0  0  0
  -36.9544    3.9551  -43.2486 C   0  0  0  0  0  0  0  0  0  0  0  0
  -36.6963    5.3783  -42.7488 C   0  0  0  0  0  0  0  0  0  0  0  0
  -35.2426    5.4943  -42.2819 C   0  0  0  0  0  0  0  0  0  0  0  0
  -34.3118    5.1254  -43.4403 C   0  0  0  0  0  0  0  0  0  0  0  0
  -34.6389    3.7095  -43.9201 C   0  0  0  0  0  0  0  0  0  0  0  0
  -32.9163    5.1784  -42.9842 N   0  0  0  0  0  0  0  0  0  0  0  0
  -32.6242    4.0117  -41.7686 X   0  0  0  0  0  0  0  0  0  0  0  0
  1  2  1  0  0  0  0
  2  3  1  0  0  0  0
  3  4  2  0  0  0  0
  3  8  1  0  0  0  0
  4  5  1  0  0  0  0
  5  6  2  0  0  0  0
  5  9  1  0  0  0  0
  6  7  1  0  0  0  0
  7  8  2  0  0  0  0
  9 10  1  0  0  0  0
  9 14  1  0  0  0  0
 10 11  1  0  0  0  0
 11 12  1  0  0  0  0
 12 13  1  0  0  0  0
 13 14  1  0  0  0  0
 13 15  1  0  0  0  0
 15 16  1  0  0  0  0
M  END
> <Index>
6625

> <PropertyFieldDistance>
nan

$$$$
4914520
BBcorina  12272117083D 1   1.00000     0.00000 
CORINA 4.3.0 0026  30.10.2019
 14 14  0  0  0  0  0  0  0  0999 V2000
  -37.9277    0.5593  -47.4836 F   0  0  0  0  0  0  0  0  0  0  0  0
  -36.9293    0.6454  -46.5075 C   0  0  0  0  0  0  0  0  0  0  0  0
  -35.6838    0.3886  -47.0905 F   0  0  0  0  0  0  0  0  0  0  0  0
  -36.9285    2.0501  -45.9011 C   0  0  0  0  0  0  0  0  0  0  0  0
  -38.1741    2.3069  -45.3181 F   0  0  0  0  0  0  0  0  0  0  0  0
  -36.6810    2.9916  -46.9057 F   0  0  0  0  0  0  0  0  0  0  0  0
  -35.8366    2.1442  -44.8336 C   0  0  0  0  0  0  0  0  0  0  0  0
  -35.7436    3.5278  -44.3489 N   0  0  0  0  0  0  0  0  0  0  0  0
  -36.8430    3.8368  -43.4241 C   0  0  0  0  0  0  0  0  0  0  0  0
  -36.7559    5.3064  -43.0052 C   0  0  0  0  0  0  0  0  0  0  0  0
  -35.4533    5.5563  -42.3724 N   0  0  0  0  0  0  0  0  0  0  0  0
  -34.3539    5.2473  -43.2974 C   0  0  0  0  0  0  0  0  0  0  0  0
  -34.4409    3.7778  -43.7162 C   0  0  0  0  0  0  0  0  0  0  0  0
  -35.3451    7.1669  -41.8082 X   0  0  0  0  0  0  0  0  0  0  0  0
  1  2  1  0  0  0  0
  2  3  1  0  0  0  0
  2  4  1  0  0  0  0
  4  5  1  0  0  0  0
  4  6  1  0  0  0  0
  4  7  1  0  0  0  0
  7  8  1  0  0  0  0
  8  9  1  0  0  0  0
  8 13  1  0  0  0  0
  9 10  1  0  0  0  0
 10 11  1  0  0  0  0
 11 12  1  0  0  0  0
 11 14  1  0  0  0  0
 12 13  1  0  0  0  0
M  END
> <Index>
6627

> <PropertyFieldDistance>
nan

$$$$
4860372
BBcorina  12272117083D 1   1.00000     0.00000 
CORINA 4.3.0 0026  30.10.2019
 13 14  0  0  0  0  0  0  0  0999 V2000
  -35.2517    5.7272  -42.7086 N   0  0  0  0  0  0  0  0  0  0  0  0
  -36.5103    5.0791  -42.3144 C   0  0  0  0  0  0  0  0  0  0  0  0
  -37.0927    4.3292  -43.5148 C   0  0  0  0  0  0  0  0  0  0  0  0
  -36.1182    3.3364  -43.9885 N   0  0  0  0  0  0  0  0  0  0  0  0
  -36.6706    2.5428  -45.0944 C   0  0  0  0  0  0  0  0  0  0  0  0
  -35.5754    1.7129  -45.7132 C   0  0  0  0  0  0  0  0  0  0  0  0
  -34.7429    2.1167  -46.6334 N   0  0  0  0  0  0  0  0  0  0  0  0
  -33.9096    1.1135  -46.9471 C   0  0  0  0  0  0  0  0  0  0  0  0
  -34.2328    0.0502  -46.1864 C   0  0  0  0  0  0  0  0  0  0  0  0
  -35.2895    0.4299  -45.4034 N   0  0  0  0  0  0  0  0  0  0  0  0
  -34.8596    3.9845  -44.3827 C   0  0  0  0  0  0  0  0  0  0  0  0
  -34.2773    4.7344  -43.1823 C   0  0  0  0  0  0  0  0  0  0  0  0
  -34.6087    6.6512  -41.4213 X   0  0  0  0  0  0  0  0  0  0  0  0
  1  2  1  0  0  0  0
  1 12  1  0  0  0  0
  1 13  1  0  0  0  0
  2  3  1  0  0  0  0
  3  4  1  0  0  0  0
  4  5  1  0  0  0  0
  4 11  1  0  0  0  0
  5  6  1  0  0  0  0
  6  7  2  0  0  0  0
  6 10  1  0  0  0  0
  7  8  1  0  0  0  0
  8  9  2  0  0  0  0
  9 10  1  0  0  0  0
 11 12  1  0  0  0  0
M  END
> <Index>
6632

> <PropertyFieldDistance>
nan

$$$$
4825174
BBcorina  12272117083D 1   1.00000     0.00000 
CORINA 4.3.0 0026  30.10.2019
 15 15  0  0  0  0  0  0  0  0999 V2000
  -37.6345    2.6077  -47.6706 C   0  0  0  0  0  0  0  0  0  0  0  0
  -36.5250    1.7068  -47.1247 C   0  0  0  0  0  0  0  0  0  0  0  0
  -35.5573    1.3479  -48.2542 C   0  0  0  0  0  0  0  0  0  0  0  0
  -37.1410    0.4272  -46.5551 C   0  0  0  0  0  0  0  0  0  0  0  0
  -35.8058    2.4064  -46.0752 O   0  0  0  0  0  0  0  0  0  0  0  0
  -36.5179    2.7950  -45.0006 C   0  0  0  0  0  0  0  0  0  0  0  0
  -37.7087    2.5603  -44.9437 O   0  0  0  0  0  0  0  0  0  0  0  0
  -35.9109    3.4490  -43.9906 N   0  0  0  0  0  0  0  0  0  0  0  0
  -36.7060    3.8519  -42.8511 C   0  0  0  0  0  0  0  0  0  0  0  0
  -37.2600    5.2799  -43.0853 C   0  0  0  0  0  0  0  0  0  0  0  0
  -36.1562    6.2575  -43.0320 C   0  0  0  0  0  0  0  0  0  0  0  0
  -35.1349    6.0717  -44.0624 N   0  0  0  0  0  0  0  0  0  0  0  0
  -34.1186    5.1442  -43.6122 C   0  0  0  0  0  0  0  0  0  0  0  0
  -34.4613    3.7177  -44.0933 C   0  0  0  0  0  0  0  0  0  0  0  0
  -34.4418    7.5679  -44.5151 X   0  0  0  0  0  0  0  0  0  0  0  0
  1  2  1  0  0  0  0
  2  3  1  0  0  0  0
  2  4  1  0  0  0  0
  2  5  1  0  0  0  0
  5  6  1  0  0  0  0
  6  7  2  0  0  0  0
  6  8  1  0  0  0  0
  8  9  1  0  0  0  0
  8 14  1  0  0  0  0
  9 10  1  0  0  0  0
 10 11  1  0  0  0  0
 11 12  1  0  0  0  0
 12 13  1  0  0  0  0
 12 15  1  0  0  0  0
 13 14  1  0  0  0  0
M  END
> <Index>
6636

> <PropertyFieldDistance>
nan

$$$$
4904906
BBcorina  12272117083D 1   1.00000     0.00000 
CORINA 4.3.0 0026  30.10.2019
 11 11  0  0  0  0  0  0  0  0999 V2000
  -29.6041    4.3106  -44.2719 C   0  0  0  0  0  0  0  0  0  0  0  0
  -30.6515    5.3848  -43.9718 C   0  0  0  0  0  0  0  0  0  0  0  0
  -31.9098    4.7621  -43.7054 O   0  0  0  0  0  0  0  0  0  0  0  0
  -32.9630    5.6821  -43.4116 C   0  0  0  0  0  0  0  0  0  0  0  0
  -34.2558    4.9088  -43.1443 C   0  0  0  0  0  0  0  0  0  0  0  0
  -35.3535    5.8832  -42.7080 C   0  0  0  0  0  0  0  0  0  0  0  0
  -36.6587    5.1099  -42.5007 C   0  0  0  0  0  0  0  0  0  0  0  0
  -37.0290    4.3869  -43.7977 C   0  0  0  0  0  0  0  0  0  0  0  0
  -35.9479    3.4664  -44.1723 N   0  0  0  0  0  0  0  0  0  0  0  0
  -34.6959    4.1916  -44.4226 C   0  0  0  0  0  0  0  0  0  0  0  0
  -36.3899    2.5210  -45.5269 X   0  0  0  0  0  0  0  0  0  0  0  0
  1  2  1  0  0  0  0
  2  3  1  0  0  0  0
  3  4  1  0  0  0  0
  4  5  1  0  0  0  0
  5  6  1  0  0  0  0
  5 10  1  0  0  0  0
  6  7  1  0  0  0  0
  7  8  1  0  0  0  0
  8  9  1  0  0  0  0
  9 10  1  0  0  0  0
  9 11  1  0  0  0  0
M  END
> <Index>
6640

> <PropertyFieldDistance>
nan

$$$$
5349764
BBcorina  12272117083D 1   1.00000     0.00000 
CORINA 4.3.0 0026  30.10.2019
  8  9  0  0  0  0  0  0  0  0999 V2000
  -35.9558    3.4335  -43.9375 N   0  0  0  0  0  0  0  0  0  0  0  0
  -37.1178    4.3187  -44.1742 C   0  0  0  0  0  0  0  0  0  0  0  0
  -36.1644    5.4861  -43.8493 C   0  0  0  0  0  0  0  0  0  0  0  0
  -35.9882    5.6987  -42.3369 C   0  0  0  0  0  0  0  0  0  0  0  0
  -34.5654    5.2544  -41.9724 C   0  0  0  0  0  0  0  0  0  0  0  0
  -33.8838    4.8003  -43.2713 C   0  0  0  0  0  0  0  0  0  0  0  0
  -35.0087    4.5563  -44.2874 C   0  0  0  0  0  0  0  0  0  0  0  0
  -35.8887    2.1852  -45.1044 X   0  0  0  0  0  0  0  0  0  0  0  0
  1  2  1  0  0  0  0
  1  7  1  0  0  0  0
  1  8  1  0  0  0  0
  2  3  1  0  0  0  0
  3  4  1  0  0  0  0
  3  7  1  0  0  0  0
  4  5  1  0  0  0  0
  5  6  1  0  0  0  0
  6  7  1  0  0  0  0
M  END
> <Index>
6655

> <PropertyFieldDistance>
nan

$$$$
10908748
BBcorina  12272117083D 1   1.00000     0.00000 
CORINA 4.3.0 0026  30.10.2019
 11 12  0  0  0  0  0  0  0  0999 V2000
  -39.2387    2.8096  -43.8782 N   0  0  0  0  0  0  0  0  0  0  0  0
  -37.9866    2.9820  -43.1294 C   0  0  0  0  0  0  0  0  0  0  0  0
  -37.8298    4.4549  -42.6732 C   0  0  0  0  0  0  0  0  0  0  0  0
  -36.5760    4.9429  -43.4122 C   0  0  0  0  0  0  0  0  0  0  0  0
  -35.7273    5.9179  -42.6079 C   0  0  0  0  0  0  0  0  0  0  0  0
  -34.4860    6.2551  -43.4486 C   0  0  0  0  0  0  0  0  0  0  0  0
  -33.7330    4.9815  -43.8309 C   0  0  0  0  0  0  0  0  0  0  0  0
  -34.6737    3.9796  -44.5173 C   0  0  0  0  0  0  0  0  0  0  0  0
  -35.7748    3.7047  -43.6040 N   0  0  0  0  0  0  0  0  0  0  0  0
  -36.7662    2.7137  -44.0498 C   0  0  0  0  0  0  0  0  0  0  0  0
  -40.5406    2.4654  -42.8243 X   0  0  0  0  0  0  0  0  0  0  0  0
  1  2  1  0  0  0  0
  1 11  1  0  0  0  0
  2  3  1  0  0  0  0
  2 10  1  0  0  0  0
  3  4  1  0  0  0  0
  4  5  1  0  0  0  0
  4  9  1  0  0  0  0
  5  6  1  0  0  0  0
  6  7  1  0  0  0  0
  7  8  1  0  0  0  0
  8  9  1  0  0  0  0
  9 10  1  0  0  0  0
M  END
> <Index>
6676

> <PropertyFieldDistance>
nan

$$$$
4910608
BBcorina  12272117083D 1   1.00000     0.00000 
CORINA 4.3.0 0026  30.10.2019
  9 10  0  0  0  0  0  0  0  0999 V2000
  -35.9405    3.4718  -44.1511 N   0  0  0  0  0  0  0  0  0  0  0  0
  -37.0339    4.3873  -43.8022 C   0  0  0  0  0  0  0  0  0  0  0  0
  -36.7000    5.1032  -42.4888 C   0  0  0  0  0  0  0  0  0  0  0  0
  -35.3443    5.8004  -42.6426 C   0  0  0  0  0  0  0  0  0  0  0  0
  -34.9831    6.8877  -41.6326 C   0  0  0  0  0  0  0  0  0  0  0  0
  -35.3420    7.2666  -43.0714 C   0  0  0  0  0  0  0  0  0  0  0  0
  -34.2160    4.9026  -43.1611 C   0  0  0  0  0  0  0  0  0  0  0  0
  -34.6969    4.1986  -44.4346 C   0  0  0  0  0  0  0  0  0  0  0  0
  -36.3771    2.4684  -45.4651 X   0  0  0  0  0  0  0  0  0  0  0  0
  1  2  1  0  0  0  0
  1  8  1  0  0  0  0
  1  9  1  0  0  0  0
  2  3  1  0  0  0  0
  3  4  1  0  0  0  0
  4  5  1  0  0  0  0
  4  6  1  0  0  0  0
  4  7  1  0  0  0  0
  5  6  1  0  0  0  0
  7  8  1  0  0  0  0
M  END
> <Index>
6678

> <PropertyFieldDistance>
nan

$$$$
4929956
BBcorina  12272117083D 1   1.00000     0.00000 
CORINA 4.3.0 0026  30.10.2019
 15 16  0  0  0  0  0  0  0  0999 V2000
  -34.8281    6.9539  -42.1297 N   0  0  0  0  0  0  0  0  0  0  0  0
  -35.1650    5.5548  -42.4240 C   0  0  0  0  0  0  0  0  0  0  0  0
  -36.6444    5.4542  -42.8062 C   0  0  0  0  0  0  0  0  0  0  0  0
  -36.9747    4.0050  -43.1704 C   0  0  0  0  0  0  0  0  0  0  0  0
  -36.1305    3.5765  -44.2930 N   0  0  0  0  0  0  0  0  0  0  0  0
  -36.5153    2.2379  -44.7600 C   0  0  0  0  0  0  0  0  0  0  0  0
  -35.8041    1.9335  -46.0534 C   0  0  0  0  0  0  0  0  0  0  0  0
  -34.5627    1.3164  -46.0434 C   0  0  0  0  0  0  0  0  0  0  0  0
  -33.9458    1.0552  -47.2576 C   0  0  0  0  0  0  0  0  0  0  0  0
  -34.5842    1.4162  -48.4287 C   0  0  0  0  0  0  0  0  0  0  0  0
  -35.7652    2.0025  -48.4002 N   0  0  0  0  0  0  0  0  0  0  0  0
  -36.3838    2.2609  -47.2647 C   0  0  0  0  0  0  0  0  0  0  0  0
  -34.7073    3.6195  -43.9337 C   0  0  0  0  0  0  0  0  0  0  0  0
  -34.3093    5.0572  -43.5922 C   0  0  0  0  0  0  0  0  0  0  0  0
  -35.2135    7.9682  -43.4514 X   0  0  0  0  0  0  0  0  0  0  0  0
  1  2  1  0  0  0  0
  1 15  1  0  0  0  0
  2  3  1  0  0  0  0
  2 14  1  0  0  0  0
  3  4  1  0  0  0  0
  4  5  1  0  0  0  0
  5  6  1  0  0  0  0
  5 13  1  0  0  0  0
  6  7  1  0  0  0  0
  7  8  2  0  0  0  0
  7 12  1  0  0  0  0
  8  9  1  0  0  0  0
  9 10  2  0  0  0  0
 10 11  1  0  0  0  0
 11 12  2  0  0  0  0
 13 14  1  0  0  0  0
M  END
> <Index>
6679

> <PropertyFieldDistance>
nan

$$$$
11353468
BBcorina  12272117083D 1   1.00000     0.00000 
CORINA 4.3.0 0026  30.10.2019
 10 10  0  0  0  0  0  0  0  0999 V2000
  -36.9418    5.6958  -45.2121 C   0  0  0  0  0  0  0  0  0  0  0  0
  -36.1242    5.2654  -43.9926 C   0  0  0  0  0  0  0  0  0  0  0  0
  -36.0901    3.7377  -43.9148 C   0  0  0  0  0  0  0  0  0  0  0  0
  -35.3782    3.3075  -42.6295 C   0  0  0  0  0  0  0  0  0  0  0  0
  -35.2938    1.7786  -42.5876 C   0  0  0  0  0  0  0  0  0  0  0  0
  -34.5743    1.2833  -43.8459 C   0  0  0  0  0  0  0  0  0  0  0  0
  -35.3173    1.7917  -45.0842 C   0  0  0  0  0  0  0  0  0  0  0  0
  -35.3857    3.2185  -45.0445 O   0  0  0  0  0  0  0  0  0  0  0  0
  -34.5445    1.3590  -41.3958 N   0  0  0  0  0  0  0  0  0  0  0  0
  -32.9992    2.0902  -41.3546 X   0  0  0  0  0  0  0  0  0  0  0  0
  1  2  1  0  0  0  0
  2  3  1  0  0  0  0
  3  4  1  0  0  0  0
  3  8  1  0  0  0  0
  4  5  1  0  0  0  0
  5  6  1  0  0  0  0
  5  9  1  0  0  0  0
  6  7  1  0  0  0  0
  7  8  1  0  0  0  0
  9 10  1  0  0  0  0
M  END
> <Index>
6693

> <PropertyFieldDistance>
nan

$$$$
4969724
BBcorina  12272117083D 1   1.00000     0.00000 
CORINA 4.3.0 0026  30.10.2019
 14 15  0  0  0  0  0  0  0  0999 V2000
  -34.6528    6.6056  -41.7402 N   0  0  0  0  0  0  0  0  0  0  0  0
  -35.2347    5.8725  -42.8725 C   0  0  0  0  0  0  0  0  0  0  0  0
  -36.5244    5.1793  -42.4246 C   0  0  0  0  0  0  0  0  0  0  0  0
  -37.0941    4.3694  -43.5915 C   0  0  0  0  0  0  0  0  0  0  0  0
  -36.1068    3.3727  -44.0254 N   0  0  0  0  0  0  0  0  0  0  0  0
  -36.6704    2.4855  -45.0517 C   0  0  0  0  0  0  0  0  0  0  0  0
  -35.5712    1.6434  -45.6464 C   0  0  0  0  0  0  0  0  0  0  0  0
  -34.8436    2.0431  -46.7541 C   0  0  0  0  0  0  0  0  0  0  0  0
  -33.9038    1.1830  -47.1496 C   0  0  0  0  0  0  0  0  0  0  0  0
  -33.9156   -0.2274  -46.0989 S   0  0  0  0  0  0  0  0  0  0  0  0
  -35.2295    0.4540  -45.1488 C   0  0  0  0  0  0  0  0  0  0  0  0
  -34.8772    4.0170  -44.5045 C   0  0  0  0  0  0  0  0  0  0  0  0
  -34.2413    4.8164  -43.3649 C   0  0  0  0  0  0  0  0  0  0  0  0
  -34.1849    5.5345  -40.4921 X   0  0  0  0  0  0  0  0  0  0  0  0
  1  2  1  0  0  0  0
  1 14  1  0  0  0  0
  2  3  1  0  0  0  0
  2 13  1  0  0  0  0
  3  4  1  0  0  0  0
  4  5  1  0  0  0  0
  5  6  1  0  0  0  0
  5 12  1  0  0  0  0
  6  7  1  0  0  0  0
  7  8  1  0  0  0  0
  7 11  2  0  0  0  0
  8  9  2  0  0  0  0
  9 10  1  0  0  0  0
 10 11  1  0  0  0  0
 12 13  1  0  0  0  0
M  END
> <Index>
6713

> <PropertyFieldDistance>
nan

$$$$
12911714
BBcorina  12272117083D 1   1.00000     0.00000 
CORINA 4.3.0 0026  30.10.2019
 16 17  0  0  0  0  0  0  0  0999 V2000
  -33.1914    5.9345  -43.0820 N   0  0  0  0  0  0  0  0  0  0  0  0
  -34.3406    5.0257  -42.9745 C   0  0  0  0  0  0  0  0  0  0  0  0
  -35.5988    5.8304  -42.6369 C   0  0  0  0  0  0  0  0  0  0  0  0
  -36.8017    4.8830  -42.5862 C   0  0  0  0  0  0  0  0  0  0  0  0
  -36.9353    4.1627  -43.9298 C   0  0  0  0  0  0  0  0  0  0  0  0
  -35.7065    3.4077  -44.2062 N   0  0  0  0  0  0  0  0  0  0  0  0
  -35.8508    2.5933  -45.4202 C   0  0  0  0  0  0  0  0  0  0  0  0
  -36.9051    1.5099  -45.1851 C   0  0  0  0  0  0  0  0  0  0  0  0
  -37.0494    0.6955  -46.3992 N   0  0  0  0  0  0  0  0  0  0  0  0
  -37.8727   -0.4947  -46.1404 C   0  0  0  0  0  0  0  0  0  0  0  0
  -38.0466   -1.2813  -47.4423 C   0  0  0  0  0  0  0  0  0  0  0  0
  -36.7589   -1.6172  -47.9660 O   0  0  0  0  0  0  0  0  0  0  0  0
  -35.9308   -0.4814  -48.2304 C   0  0  0  0  0  0  0  0  0  0  0  0
  -35.7355    0.3132  -46.9364 C   0  0  0  0  0  0  0  0  0  0  0  0
  -34.5455    4.3014  -44.3069 C   0  0  0  0  0  0  0  0  0  0  0  0
  -33.4441    7.0996  -44.3078 X   0  0  0  0  0  0  0  0  0  0  0  0
  1  2  1  0  0  0  0
  1 16  1  0  0  0  0
  2  3  1  0  0  0  0
  2 15  1  0  0  0  0
  3  4  1  0  0  0  0
  4  5  1  0  0  0  0
  5  6  1  0  0  0  0
  6  7  1  0  0  0  0
  6 15  1  0  0  0  0
  7  8  1  0  0  0  0
  8  9  1  0  0  0  0
  9 10  1  0  0  0  0
  9 14  1  0  0  0  0
 10 11  1  0  0  0  0
 11 12  1  0  0  0  0
 12 13  1  0  0  0  0
 13 14  1  0  0  0  0
M  END
> <Index>
6720

> <PropertyFieldDistance>
nan

$$$$
4915870
BBcorina  12272117083D 1   1.00000     0.00000 
CORINA 4.3.0 0026  30.10.2019
 15 16  0  0  0  0  0  0  0  0999 V2000
  -33.2317    5.7794  -44.1568 N   0  0  0  0  0  0  0  0  0  0  0  0
  -34.2577    5.0932  -43.3602 C   0  0  0  0  0  0  0  0  0  0  0  0
  -35.4401    6.0380  -43.1317 C   0  0  0  0  0  0  0  0  0  0  0  0
  -36.6029    5.2276  -42.5463 C   0  0  0  0  0  0  0  0  0  0  0  0
  -37.1065    4.2534  -43.6117 C   0  0  0  0  0  0  0  0  0  0  0  0
  -35.9970    3.4950  -44.1759 N   0  0  0  0  0  0  0  0  0  0  0  0
  -34.7188    3.8654  -44.0919 C   0  0  0  0  0  0  0  0  0  0  0  0
  -33.8839    3.1739  -44.6360 O   0  0  0  0  0  0  0  0  0  0  0  0
  -36.2917    2.3032  -44.8472 C   0  0  0  0  0  0  0  0  0  0  0  0
  -36.3161    1.1009  -44.1526 C   0  0  0  0  0  0  0  0  0  0  0  0
  -36.6077   -0.0736  -44.8180 C   0  0  0  0  0  0  0  0  0  0  0  0
  -36.8749   -0.0534  -46.1746 C   0  0  0  0  0  0  0  0  0  0  0  0
  -36.8515    1.1421  -46.8692 C   0  0  0  0  0  0  0  0  0  0  0  0
  -36.5661    2.3208  -46.2084 C   0  0  0  0  0  0  0  0  0  0  0  0
  -31.6692    5.1996  -43.7737 X   0  0  0  0  0  0  0  0  0  0  0  0
  1  2  1  0  0  0  0
  1 15  1  0  0  0  0
  2  3  1  0  0  0  0
  2  7  1  0  0  0  0
  3  4  1  0  0  0  0
  4  5  1  0  0  0  0
  5  6  1  0  0  0  0
  6  7  1  0  0  0  0
  6  9  1  0  0  0  0
  7  8  2  0  0  0  0
  9 10  2  0  0  0  0
  9 14  1  0  0  0  0
 10 11  1  0  0  0  0
 11 12  2  0  0  0  0
 12 13  1  0  0  0  0
 13 14  2  0  0  0  0
M  END
> <Index>
6734

> <PropertyFieldDistance>
nan

$$$$
4969040
BBcorina  12272117083D 1   1.00000     0.00000 
CORINA 4.3.0 0026  30.10.2019
 14 15  0  0  0  0  0  0  0  0999 V2000
  -32.9159    5.1799  -42.9835 N   0  0  0  0  0  0  0  0  0  0  0  0
  -34.3112    5.1269  -43.4397 C   0  0  0  0  0  0  0  0  0  0  0  0
  -35.2420    5.4969  -42.2815 C   0  0  0  0  0  0  0  0  0  0  0  0
  -36.6958    5.3801  -42.7481 C   0  0  0  0  0  0  0  0  0  0  0  0
  -36.9540    3.9568  -43.2479 C   0  0  0  0  0  0  0  0  0  0  0  0
  -36.0395    3.6523  -44.3558 N   0  0  0  0  0  0  0  0  0  0  0  0
  -34.6386    3.7110  -43.9194 C   0  0  0  0  0  0  0  0  0  0  0  0
  -36.3357    2.4105  -44.9223 C   0  0  0  0  0  0  0  0  0  0  0  0
  -37.6138    2.1503  -45.4002 C   0  0  0  0  0  0  0  0  0  0  0  0
  -37.9032    0.9216  -45.9602 C   0  0  0  0  0  0  0  0  0  0  0  0
  -36.9222   -0.0493  -46.0456 C   0  0  0  0  0  0  0  0  0  0  0  0
  -35.6488    0.2064  -45.5709 C   0  0  0  0  0  0  0  0  0  0  0  0
  -35.3512    1.4348  -45.0145 C   0  0  0  0  0  0  0  0  0  0  0  0
  -32.2522    6.7378  -43.2212 X   0  0  0  0  0  0  0  0  0  0  0  0
  1  2  1  0  0  0  0
  1 14  1  0  0  0  0
  2  3  1  0  0  0  0
  2  7  1  0  0  0  0
  3  4  1  0  0  0  0
  4  5  1  0  0  0  0
  5  6  1  0  0  0  0
  6  7  1  0  0  0  0
  6  8  1  0  0  0  0
  8  9  2  0  0  0  0
  8 13  1  0  0  0  0
  9 10  1  0  0  0  0
 10 11  2  0  0  0  0
 11 12  1  0  0  0  0
 12 13  2  0  0  0  0
M  END
> <Index>
6737

> <PropertyFieldDistance>
nan

$$$$
9438860
BBcorina  12272117083D 1   1.00000     0.00000 
CORINA 4.3.0 0026  30.10.2019
 11 12  0  0  0  0  0  0  0  0999 V2000
  -33.9969    5.1122  -41.9202 N   0  0  0  0  0  0  0  0  0  0  0  0
  -34.9184    5.1579  -43.0634 C   0  0  0  0  0  0  0  0  0  0  0  0
  -36.3854    5.1801  -42.5754 C   0  0  0  0  0  0  0  0  0  0  0  0
  -37.0875    4.3187  -43.6485 C   0  0  0  0  0  0  0  0  0  0  0  0
  -36.0453    3.4357  -44.1851 N   0  0  0  0  0  0  0  0  0  0  0  0
  -36.3096    2.2197  -44.9582 C   0  0  0  0  0  0  0  0  0  0  0  0
  -35.7878    0.8966  -44.3941 C   0  0  0  0  0  0  0  0  0  0  0  0
  -35.1147    1.5260  -45.6153 C   0  0  0  0  0  0  0  0  0  0  0  0
  -34.8172    3.8830  -43.8713 C   0  0  0  0  0  0  0  0  0  0  0  0
  -33.7788    3.3443  -44.1916 O   0  0  0  0  0  0  0  0  0  0  0  0
  -34.1904    3.6623  -41.0347 X   0  0  0  0  0  0  0  0  0  0  0  0
  1  2  1  0  0  0  0
  1 11  1  0  0  0  0
  2  3  1  0  0  0  0
  2  9  1  0  0  0  0
  3  4  1  0  0  0  0
  4  5  1  0  0  0  0
  5  6  1  0  0  0  0
  5  9  1  0  0  0  0
  6  7  1  0  0  0  0
  6  8  1  0  0  0  0
  7  8  1  0  0  0  0
  9 10  2  0  0  0  0
M  END
> <Index>
6738

> <PropertyFieldDistance>
nan

$$$$
4995050
BBcorina  12272117083D 1   1.00000     0.00000 
CORINA 4.3.0 0026  30.10.2019
 12 12  0  0  0  0  0  0  0  0999 V2000
  -32.0928    5.9801  -41.5110 C   0  0  0  0  0  0  0  0  0  0  0  0
  -33.4467    5.4994  -40.9850 C   0  0  0  0  0  0  0  0  0  0  0  0
  -33.9524    6.4703  -39.9161 C   0  0  0  0  0  0  0  0  0  0  0  0
  -33.2911    4.1050  -40.3750 C   0  0  0  0  0  0  0  0  0  0  0  0
  -34.4507    5.4424  -42.1382 C   0  0  0  0  0  0  0  0  0  0  0  0
  -35.7937    4.8901  -41.6104 C   0  0  0  0  0  0  0  0  0  0  0  0
  -36.8814    5.2353  -42.5923 C   0  0  0  0  0  0  0  0  0  0  0  0
  -37.1122    4.1347  -43.6432 C   0  0  0  0  0  0  0  0  0  0  0  0
  -35.8571    3.5533  -44.1681 N   0  0  0  0  0  0  0  0  0  0  0  0
  -34.8310    4.5332  -44.4313 C   0  0  0  0  0  0  0  0  0  0  0  0
  -33.9057    4.6071  -43.2027 C   0  0  0  0  0  0  0  0  0  0  0  0
  -36.1576    2.5940  -45.5513 X   0  0  0  0  0  0  0  0  0  0  0  0
  1  2  1  0  0  0  0
  2  3  1  0  0  0  0
  2  4  1  0  0  0  0
  2  5  1  0  0  0  0
  5  6  1  0  0  0  0
  5 11  1  0  0  0  0
  6  7  1  0  0  0  0
  7  8  1  0  0  0  0
  8  9  1  0  0  0  0
  9 10  1  0  0  0  0
  9 12  1  0  0  0  0
 10 11  1  0  0  0  0
M  END
> <Index>
6743

> <PropertyFieldDistance>
nan

$$$$
4915758
BBcorina  12272117083D 1   1.00000     0.00000 
CORINA 4.3.0 0026  30.10.2019
 12 13  0  0  0  0  0  0  0  0999 V2000
  -36.0194    3.9409  -44.5845 N   0  0  0  0  0  0  0  0  0  0  0  0
  -36.9712    4.0082  -43.4683 C   0  0  0  0  0  0  0  0  0  0  0  0
  -36.6798    5.2489  -42.6210 C   0  0  0  0  0  0  0  0  0  0  0  0
  -35.2467    5.1714  -42.0866 C   0  0  0  0  0  0  0  0  0  0  0  0
  -34.2780    5.0479  -43.2655 C   0  0  0  0  0  0  0  0  0  0  0  0
  -34.3714    6.3043  -44.1378 C   0  0  0  0  0  0  0  0  0  0  0  0
  -34.1843    7.5311  -43.2418 C   0  0  0  0  0  0  0  0  0  0  0  0
  -32.9711    7.3583  -42.3757 C   0  0  0  0  0  0  0  0  0  0  0  0
  -32.3914    6.2221  -42.1554 C   0  0  0  0  0  0  0  0  0  0  0  0
  -32.8466    4.9186  -42.7445 C   0  0  0  0  0  0  0  0  0  0  0  0
  -34.6389    3.8178  -44.0984 C   0  0  0  0  0  0  0  0  0  0  0  0
  -36.4113    2.6602  -45.6476 X   0  0  0  0  0  0  0  0  0  0  0  0
  1  2  1  0  0  0  0
  1 11  1  0  0  0  0
  1 12  1  0  0  0  0
  2  3  1  0  0  0  0
  3  4  1  0  0  0  0
  4  5  1  0  0  0  0
  5  6  1  0  0  0  0
  5 10  1  0  0  0  0
  5 11  1  0  0  0  0
  6  7  1  0  0  0  0
  7  8  1  0  0  0  0
  8  9  2  0  0  0  0
  9 10  1  0  0  0  0
M  END
> <Index>
6745

> <PropertyFieldDistance>
nan

$$$$
4929964
BBcorina  12272117083D 1   1.00000     0.00000 
CORINA 4.3.0 0026  30.10.2019
 12 12  0  0  0  0  0  0  0  0999 V2000
  -35.5861    1.6524  -45.6893 C   0  0  0  0  0  0  0  0  0  0  0  0
  -36.6679    2.5768  -45.1270 C   0  0  0  0  0  0  0  0  0  0  0  0
  -36.1163    3.3517  -44.0074 N   0  0  0  0  0  0  0  0  0  0  0  0
  -37.0912    4.3363  -43.5175 C   0  0  0  0  0  0  0  0  0  0  0  0
  -36.5097    5.0659  -42.3043 C   0  0  0  0  0  0  0  0  0  0  0  0
  -35.2509    5.7207  -42.6867 N   0  0  0  0  0  0  0  0  0  0  0  0
  -34.2761    4.7362  -43.1766 C   0  0  0  0  0  0  0  0  0  0  0  0
  -34.8575    4.0066  -44.3899 C   0  0  0  0  0  0  0  0  0  0  0  0
  -37.8314    1.7512  -44.6413 C   0  0  0  0  0  0  0  0  0  0  0  0
  -38.1680    1.8033  -43.4773 O   0  0  0  0  0  0  0  0  0  0  0  0
  -38.4979    0.9550  -45.5006 N   0  0  0  0  0  0  0  0  0  0  0  0
  -34.6089    6.6228  -41.3837 X   0  0  0  0  0  0  0  0  0  0  0  0
  1  2  1  0  0  0  0
  2  3  1  0  0  0  0
  2  9  1  0  0  0  0
  3  4  1  0  0  0  0
  3  8  1  0  0  0  0
  4  5  1  0  0  0  0
  5  6  1  0  0  0  0
  6  7  1  0  0  0  0
  6 12  1  0  0  0  0
  7  8  1  0  0  0  0
  9 10  2  0  0  0  0
  9 11  1  0  0  0  0
M  END
> <Index>
6749

> <PropertyFieldDistance>
nan

$$$$
4933940
BBcorina  12272117083D 1   1.00000     0.00000 
CORINA 4.3.0 0026  30.10.2019
 11 11  0  0  0  0  0  0  0  0999 V2000
  -34.3961    6.5805  -39.9982 C   0  0  0  0  0  0  0  0  0  0  0  0
  -33.7092    6.2158  -41.3159 C   0  0  0  0  0  0  0  0  0  0  0  0
  -32.4239    5.4391  -41.0230 C   0  0  0  0  0  0  0  0  0  0  0  0
  -34.6480    5.3495  -42.1578 C   0  0  0  0  0  0  0  0  0  0  0  0
  -35.8995    6.1213  -42.4773 C   0  0  0  0  0  0  0  0  0  0  0  0
  -37.1497    5.2253  -42.5910 C   0  0  0  0  0  0  0  0  0  0  0  0
  -36.8627    3.9132  -43.3455 C   0  0  0  0  0  0  0  0  0  0  0  0
  -36.0144    4.1261  -44.4927 N   0  0  0  0  0  0  0  0  0  0  0  0
  -34.6116    3.8364  -44.1284 C   0  0  0  0  0  0  0  0  0  0  0  0
  -33.9489    4.9626  -43.4802 C   0  0  0  0  0  0  0  0  0  0  0  0
  -36.5160    3.1623  -45.8132 X   0  0  0  0  0  0  0  0  0  0  0  0
  1  2  1  0  0  0  0
  2  3  1  0  0  0  0
  2  4  1  0  0  0  0
  4  5  1  0  0  0  0
  4 10  1  0  0  0  0
  5  6  1  0  0  0  0
  6  7  1  0  0  0  0
  7  8  1  0  0  0  0
  8  9  1  0  0  0  0
  8 11  1  0  0  0  0
  9 10  1  0  0  0  0
M  END
> <Index>
6753

> <PropertyFieldDistance>
nan

$$$$
10428084
BBcorina  12272117083D 1   1.00000     0.00000 
CORINA 4.3.0 0026  30.10.2019
  9  9  0  0  0  0  0  0  0  0999 V2000
  -36.0624    3.4339  -45.9122 O   0  0  0  0  0  0  0  0  0  0  0  0
  -35.9513    3.8125  -44.5524 N   0  0  0  0  0  0  0  0  0  0  0  0
  -37.0736    4.2745  -43.7271 C   0  0  0  0  0  0  0  0  0  0  0  0
  -36.4293    4.9758  -42.5106 C   0  0  0  0  0  0  0  0  0  0  0  0
  -35.0502    4.2801  -42.4396 C   0  0  0  0  0  0  0  0  0  0  0  0
  -34.0105    5.2343  -42.0316 N   0  0  0  0  0  0  0  0  0  0  0  0
  -34.8034    3.8004  -43.8529 C   0  0  0  0  0  0  0  0  0  0  0  0
  -33.7267    3.4546  -44.2911 O   0  0  0  0  0  0  0  0  0  0  0  0
  -33.9656    6.5797  -43.0861 X   0  0  0  0  0  0  0  0  0  0  0  0
  1  2  1  0  0  0  0
  2  3  1  0  0  0  0
  2  7  1  0  0  0  0
  3  4  1  0  0  0  0
  4  5  1  0  0  0  0
  5  6  1  0  0  0  0
  5  7  1  0  0  0  0
  6  9  1  0  0  0  0
  7  8  2  0  0  0  0
M  END
> <Index>
6760

> <PropertyFieldDistance>
nan

$$$$
13228218
BBcorina  12272117083D 1   1.00000     0.00000 
CORINA 4.3.0 0026  30.10.2019
  9  9  0  0  0  0  0  0  0  0999 V2000
  -32.1069    4.8078  -40.3016 C   0  0  0  0  0  0  0  0  0  0  0  0
  -33.1436    3.9431  -41.0218 C   0  0  0  0  0  0  0  0  0  0  0  0
  -34.1124    4.7851  -41.6500 O   0  0  0  0  0  0  0  0  0  0  0  0
  -35.1316    4.0731  -42.3544 C   0  0  0  0  0  0  0  0  0  0  0  0
  -36.4196    4.9319  -42.4898 C   0  0  0  0  0  0  0  0  0  0  0  0
  -37.0796    4.3646  -43.7642 C   0  0  0  0  0  0  0  0  0  0  0  0
  -36.0217    3.7054  -44.5516 N   0  0  0  0  0  0  0  0  0  0  0  0
  -34.7367    3.8612  -43.8373 C   0  0  0  0  0  0  0  0  0  0  0  0
  -35.9306    4.3633  -46.1274 X   0  0  0  0  0  0  0  0  0  0  0  0
  1  2  1  0  0  0  0
  2  3  1  0  0  0  0
  3  4  1  0  0  0  0
  4  5  1  0  0  0  0
  4  8  1  0  0  0  0
  5  6  1  0  0  0  0
  6  7  1  0  0  0  0
  7  8  1  0  0  0  0
  7  9  1  0  0  0  0
M  END
> <Index>
6778

> <PropertyFieldDistance>
nan

$$$$
13422034
BBcorina  12272117083D 1   1.00000     0.00000 
CORINA 4.3.0 0026  30.10.2019
  9  9  0  0  0  0  0  0  0  0999 V2000
  -40.7768    3.4989  -43.2946 C   0  0  0  0  0  0  0  0  0  0  0  0
  -39.5943    4.3341  -43.4054 O   0  0  0  0  0  0  0  0  0  0  0  0
  -38.4447    3.7224  -43.7308 C   0  0  0  0  0  0  0  0  0  0  0  0
  -38.4270    2.5287  -43.9169 O   0  0  0  0  0  0  0  0  0  0  0  0
  -37.1759    4.5246  -43.8641 C   0  0  0  0  0  0  0  0  0  0  0  0
  -36.4846    4.8057  -42.5225 C   0  0  0  0  0  0  0  0  0  0  0  0
  -35.2020    4.5506  -43.3264 C   0  0  0  0  0  0  0  0  0  0  0  0
  -36.0032    3.7116  -44.2369 N   0  0  0  0  0  0  0  0  0  0  0  0
  -35.5628    3.9828  -45.8669 X   0  0  0  0  0  0  0  0  0  0  0  0
  1  2  1  0  0  0  0
  2  3  1  0  0  0  0
  3  4  2  0  0  0  0
  3  5  1  0  0  0  0
  5  6  1  0  0  0  0
  5  8  1  0  0  0  0
  6  7  1  0  0  0  0
  7  8  1  0  0  0  0
  8  9  1  0  0  0  0
M  END
> <Index>
6791

> <PropertyFieldDistance>
nan

$$$$
11972768
BBcorina  12272117083D 1   1.00000     0.00000 
CORINA 4.3.0 0026  30.10.2019
 12 13  0  0  0  0  0  0  0  0999 V2000
  -35.9479    3.4666  -44.1723 N   0  0  0  0  0  0  0  0  0  0  0  0
  -37.0293    4.3868  -43.7977 C   0  0  0  0  0  0  0  0  0  0  0  0
  -36.6588    5.1099  -42.5007 C   0  0  0  0  0  0  0  0  0  0  0  0
  -35.3537    5.8824  -42.7084 C   0  0  0  0  0  0  0  0  0  0  0  0
  -35.5554    6.9425  -43.7923 C   0  0  0  0  0  0  0  0  0  0  0  0
  -34.2503    7.7133  -44.0011 C   0  0  0  0  0  0  0  0  0  0  0  0
  -33.8442    8.3923  -42.6915 C   0  0  0  0  0  0  0  0  0  0  0  0
  -33.6414    7.3310  -41.6082 C   0  0  0  0  0  0  0  0  0  0  0  0
  -34.9461    6.5596  -41.3992 C   0  0  0  0  0  0  0  0  0  0  0  0
  -34.2557    4.9089  -43.1444 C   0  0  0  0  0  0  0  0  0  0  0  0
  -34.6956    4.1914  -44.4226 C   0  0  0  0  0  0  0  0  0  0  0  0
  -36.3898    2.5207  -45.5266 X   0  0  0  0  0  0  0  0  0  0  0  0
  1  2  1  0  0  0  0
  1 11  1  0  0  0  0
  1 12  1  0  0  0  0
  2  3  1  0  0  0  0
  3  4  1  0  0  0  0
  4  5  1  0  0  0  0
  4  9  1  0  0  0  0
  4 10  1  0  0  0  0
  5  6  1  0  0  0  0
  6  7  1  0  0  0  0
  7  8  1  0  0  0  0
  8  9  1  0  0  0  0
 10 11  1  0  0  0  0
M  END
> <Index>
6798

> <PropertyFieldDistance>
nan

$$$$
8635834
BBcorina  12272117083D 1   1.00000     0.00000 
CORINA 4.3.0 0026  30.10.2019
 11 11  0  0  0  0  0  0  0  0999 V2000
  -36.5437    9.2894  -39.3707 O   0  0  0  0  0  0  0  0  0  0  0  0
  -35.5752    8.2970  -39.7163 C   0  0  0  0  0  0  0  0  0  0  0  0
  -35.9828    7.6214  -41.0271 C   0  0  0  0  0  0  0  0  0  0  0  0
  -34.9460    6.5589  -41.3971 C   0  0  0  0  0  0  0  0  0  0  0  0
  -35.3535    5.8833  -42.7079 C   0  0  0  0  0  0  0  0  0  0  0  0
  -36.6585    5.1099  -42.5008 C   0  0  0  0  0  0  0  0  0  0  0  0
  -37.0291    4.3869  -43.7977 C   0  0  0  0  0  0  0  0  0  0  0  0
  -35.9480    3.4664  -44.1723 N   0  0  0  0  0  0  0  0  0  0  0  0
  -34.6958    4.1916  -44.4226 C   0  0  0  0  0  0  0  0  0  0  0  0
  -34.2559    4.9088  -43.1442 C   0  0  0  0  0  0  0  0  0  0  0  0
  -36.3899    2.5211  -45.5270 X   0  0  0  0  0  0  0  0  0  0  0  0
  1  2  1  0  0  0  0
  2  3  1  0  0  0  0
  3  4  1  0  0  0  0
  4  5  1  0  0  0  0
  5  6  1  0  0  0  0
  5 10  1  0  0  0  0
  6  7  1  0  0  0  0
  7  8  1  0  0  0  0
  8  9  1  0  0  0  0
  8 11  1  0  0  0  0
  9 10  1  0  0  0  0
M  END
> <Index>
6799

> <PropertyFieldDistance>
nan

$$$$
11972806
BBcorina  12272117083D 1   1.00000     0.00000 
CORINA 4.3.0 0026  30.10.2019
 12 13  0  0  0  0  0  0  0  0999 V2000
  -36.0191    3.9414  -44.5845 N   0  0  0  0  0  0  0  0  0  0  0  0
  -36.9723    4.0087  -43.4695 C   0  0  0  0  0  0  0  0  0  0  0  0
  -36.6793    5.2476  -42.6202 C   0  0  0  0  0  0  0  0  0  0  0  0
  -35.2462    5.1676  -42.0870 C   0  0  0  0  0  0  0  0  0  0  0  0
  -34.2770    5.0496  -43.2665 C   0  0  0  0  0  0  0  0  0  0  0  0
  -34.6396    3.8164  -44.0970 C   0  0  0  0  0  0  0  0  0  0  0  0
  -34.9316    6.4133  -41.2993 C   0  0  0  0  0  0  0  0  0  0  0  0
  -34.5872    6.4563  -39.9998 C   0  0  0  0  0  0  0  0  0  0  0  0
  -34.3814    7.8169  -39.6754 C   0  0  0  0  0  0  0  0  0  0  0  0
  -34.6204    8.5247  -40.7940 C   0  0  0  0  0  0  0  0  0  0  0  0
  -34.9532    7.6693  -41.7745 O   0  0  0  0  0  0  0  0  0  0  0  0
  -36.4111    2.6621  -45.6494 X   0  0  0  0  0  0  0  0  0  0  0  0
  1  2  1  0  0  0  0
  1  6  1  0  0  0  0
  1 12  1  0  0  0  0
  2  3  1  0  0  0  0
  3  4  1  0  0  0  0
  4  5  1  0  0  0  0
  4  7  1  0  0  0  0
  5  6  1  0  0  0  0
  7  8  2  0  0  0  0
  7 11  1  0  0  0  0
  8  9  1  0  0  0  0
  9 10  2  0  0  0  0
 10 11  1  0  0  0  0
M  END
> <Index>
6800

> <PropertyFieldDistance>
nan

$$$$
6741136
BBcorina  12272117083D 1   1.00000     0.00000 
CORINA 4.3.0 0026  30.10.2019
 12 13  0  0  0  0  0  0  0  0999 V2000
  -36.0191    3.9414  -44.5845 N   0  0  0  0  0  0  0  0  0  0  0  0
  -36.9723    4.0087  -43.4695 C   0  0  0  0  0  0  0  0  0  0  0  0
  -36.6793    5.2476  -42.6202 C   0  0  0  0  0  0  0  0  0  0  0  0
  -35.2462    5.1676  -42.0870 C   0  0  0  0  0  0  0  0  0  0  0  0
  -34.2770    5.0496  -43.2665 C   0  0  0  0  0  0  0  0  0  0  0  0
  -34.6396    3.8164  -44.0970 C   0  0  0  0  0  0  0  0  0  0  0  0
  -34.9316    6.4133  -41.2993 C   0  0  0  0  0  0  0  0  0  0  0  0
  -34.4856    7.5785  -41.8063 C   0  0  0  0  0  0  0  0  0  0  0  0
  -34.3349    8.4375  -40.7512 N   0  0  0  0  0  0  0  0  0  0  0  0
  -34.6854    7.7639  -39.6344 C   0  0  0  0  0  0  0  0  0  0  0  0
  -35.0412    6.5539  -39.9700 N   0  0  0  0  0  0  0  0  0  0  0  0
  -36.4111    2.6621  -45.6494 X   0  0  0  0  0  0  0  0  0  0  0  0
  1  2  1  0  0  0  0
  1  6  1  0  0  0  0
  1 12  1  0  0  0  0
  2  3  1  0  0  0  0
  3  4  1  0  0  0  0
  4  5  1  0  0  0  0
  4  7  1  0  0  0  0
  5  6  1  0  0  0  0
  7  8  2  0  0  0  0
  7 11  1  0  0  0  0
  8  9  1  0  0  0  0
  9 10  1  0  0  0  0
 10 11  2  0  0  0  0
M  END
> <Index>
6803

> <PropertyFieldDistance>
nan

$$$$
13977710
BBcorina  12272117083D 1   1.00000     0.00000 
CORINA 4.3.0 0026  30.10.2019
 10 11  0  0  0  0  0  0  0  0999 V2000
  -36.6487    2.1872  -45.9717 C   0  0  0  0  0  0  0  0  0  0  0  0
  -35.6005    3.0196  -45.2304 C   0  0  0  0  0  0  0  0  0  0  0  0
  -35.9133    3.0353  -43.7952 N   0  0  0  0  0  0  0  0  0  0  0  0
  -37.0391    3.9563  -43.5067 C   0  0  0  0  0  0  0  0  0  0  0  0
  -36.4730    4.9778  -42.4723 C   0  0  0  0  0  0  0  0  0  0  0  0
  -35.4752    4.0439  -41.6982 C   0  0  0  0  0  0  0  0  0  0  0  0
  -34.7513    3.5412  -42.9985 C   0  0  0  0  0  0  0  0  0  0  0  0
  -34.4085    4.9143  -43.6550 C   0  0  0  0  0  0  0  0  0  0  0  0
  -35.5214    5.8149  -43.2690 N   0  0  0  0  0  0  0  0  0  0  0  0
  -36.2887    6.4680  -44.6507 X   0  0  0  0  0  0  0  0  0  0  0  0
  1  2  1  0  0  0  0
  2  3  1  0  0  0  0
  3  4  1  0  0  0  0
  3  7  1  0  0  0  0
  4  5  1  0  0  0  0
  5  6  1  0  0  0  0
  5  9  1  0  0  0  0
  6  7  1  0  0  0  0
  7  8  1  0  0  0  0
  8  9  1  0  0  0  0
  9 10  1  0  0  0  0
M  END
> <Index>
6845

> <PropertyFieldDistance>
nan

$$$$
14423466
BBcorina  12272117083D 1   1.00000     0.00000 
CORINA 4.3.0 0026  30.10.2019
 12 13  0  0  0  0  0  0  0  0999 V2000
  -36.3600    3.2355  -45.2359 C   0  0  0  0  0  0  0  0  0  0  0  0
  -35.9251    3.1502  -43.8439 N   0  0  0  0  0  0  0  0  0  0  0  0
  -36.8444    3.8056  -42.9164 C   0  0  0  0  0  0  0  0  0  0  0  0
  -36.8489    5.3136  -43.1143 C   0  0  0  0  0  0  0  0  0  0  0  0
  -35.4534    5.9173  -43.0760 C   0  0  0  0  0  0  0  0  0  0  0  0
  -34.4411    5.1155  -43.8796 C   0  0  0  0  0  0  0  0  0  0  0  0
  -34.5553    3.6173  -43.6430 C   0  0  0  0  0  0  0  0  0  0  0  0
  -34.0788    3.2385  -42.2444 C   0  0  0  0  0  0  0  0  0  0  0  0
  -35.0250    3.7368  -41.1590 C   0  0  0  0  0  0  0  0  0  0  0  0
  -36.4834    3.4352  -41.4814 C   0  0  0  0  0  0  0  0  0  0  0  0
  -34.6770    3.0625  -39.8885 N   0  0  0  0  0  0  0  0  0  0  0  0
  -34.7244    1.3622  -40.0641 X   0  0  0  0  0  0  0  0  0  0  0  0
  1  2  1  0  0  0  0
  2  3  1  0  0  0  0
  2  7  1  0  0  0  0
  3  4  1  0  0  0  0
  3 10  1  0  0  0  0
  4  5  1  0  0  0  0
  5  6  1  0  0  0  0
  6  7  1  0  0  0  0
  7  8  1  0  0  0  0
  8  9  1  0  0  0  0
  9 10  1  0  0  0  0
  9 11  1  0  0  0  0
 11 12  1  0  0  0  0
M  END
> <Index>
6852

> <PropertyFieldDistance>
nan

$$$$
13609230
BBcorina  12272117083D 1   1.00000     0.00000 
CORINA 4.3.0 0026  30.10.2019
  8  8  0  0  0  0  0  0  0  0999 V2000
  -36.0415    3.5551  -44.4472 N   0  0  0  0  0  0  0  0  0  0  0  0
  -36.3528    2.2568  -44.6314 C   0  0  0  0  0  0  0  0  0  0  0  0
  -36.8233    1.6106  -43.7192 O   0  0  0  0  0  0  0  0  0  0  0  0
  -36.1221    1.6096  -45.9726 C   0  0  0  0  0  0  0  0  0  0  0  0
  -37.2430    1.8843  -46.9851 C   0  0  0  0  0  0  0  0  0  0  0  0
  -37.0108    0.4190  -47.3794 C   0  0  0  0  0  0  0  0  0  0  0  0
  -36.5078    0.1867  -46.0126 N   0  0  0  0  0  0  0  0  0  0  0  0
  -35.1272   -0.8221  -46.0308 X   0  0  0  0  0  0  0  0  0  0  0  0
  1  2  1  0  0  0  0
  2  3  2  0  0  0  0
  2  4  1  0  0  0  0
  4  5  1  0  0  0  0
  4  7  1  0  0  0  0
  5  6  1  0  0  0  0
  6  7  1  0  0  0  0
  7  8  1  0  0  0  0
M  END
> <Index>
6855

> <PropertyFieldDistance>
nan

$$$$
12632514
BBcorina  12272117083D 1   1.00000     0.00000 
CORINA 4.3.0 0026  30.10.2019
 14 15  0  0  0  0  0  0  0  0999 V2000
  -36.0036    3.5626  -44.2987 N   0  0  0  0  0  0  0  0  0  0  0  0
  -36.9617    4.5760  -43.8283 C   0  0  0  0  0  0  0  0  0  0  0  0
  -36.6473    4.9026  -42.3652 C   0  0  0  0  0  0  0  0  0  0  0  0
  -35.2274    5.2092  -42.2174 N   0  0  0  0  0  0  0  0  0  0  0  0
  -34.3094    4.8554  -43.1230 C   0  0  0  0  0  0  0  0  0  0  0  0
  -33.1458    5.1184  -42.9040 O   0  0  0  0  0  0  0  0  0  0  0  0
  -34.6589    4.1452  -44.4002 C   0  0  0  0  0  0  0  0  0  0  0  0
  -34.8079    5.8988  -41.0745 C   0  0  0  0  0  0  0  0  0  0  0  0
  -34.7484    7.2862  -41.0818 C   0  0  0  0  0  0  0  0  0  0  0  0
  -34.3281    7.9638  -39.9540 C   0  0  0  0  0  0  0  0  0  0  0  0
  -33.9779    7.2626  -38.8147 C   0  0  0  0  0  0  0  0  0  0  0  0
  -34.0355    5.8810  -38.8044 C   0  0  0  0  0  0  0  0  0  0  0  0
  -34.4496    5.1974  -39.9308 C   0  0  0  0  0  0  0  0  0  0  0  0
  -36.4985    2.8992  -45.7951 X   0  0  0  0  0  0  0  0  0  0  0  0
  1  2  1  0  0  0  0
  1  7  1  0  0  0  0
  1 14  1  0  0  0  0
  2  3  1  0  0  0  0
  3  4  1  0  0  0  0
  4  5  1  0  0  0  0
  4  8  1  0  0  0  0
  5  6  2  0  0  0  0
  5  7  1  0  0  0  0
  8  9  2  0  0  0  0
  8 13  1  0  0  0  0
  9 10  1  0  0  0  0
 10 11  2  0  0  0  0
 11 12  1  0  0  0  0
 12 13  2  0  0  0  0
M  END
> <Index>
6858

> <PropertyFieldDistance>
nan

$$$$
10156150
BBcorina  12272117083D 1   1.00000     0.00000 
CORINA 4.3.0 0026  30.10.2019
 13 13  0  0  0  0  0  0  0  0999 V2000
  -37.2074    1.2050  -44.0638 F   0  0  0  0  0  0  0  0  0  0  0  0
  -36.2473    1.3622  -45.0692 C   0  0  0  0  0  0  0  0  0  0  0  0
  -36.5417    0.5032  -46.1335 F   0  0  0  0  0  0  0  0  0  0  0  0
  -34.9819    1.0547  -44.5579 F   0  0  0  0  0  0  0  0  0  0  0  0
  -36.2594    2.8099  -45.5641 C   0  0  0  0  0  0  0  0  0  0  0  0
  -35.9511    3.7095  -44.4498 N   0  0  0  0  0  0  0  0  0  0  0  0
  -37.0539    4.2228  -43.6420 C   0  0  0  0  0  0  0  0  0  0  0  0
  -36.5250    4.7487  -42.3063 C   0  0  0  0  0  0  0  0  0  0  0  0
  -35.4001    5.6608  -42.5697 N   0  0  0  0  0  0  0  0  0  0  0  0
  -34.2464    4.9082  -43.0798 C   0  0  0  0  0  0  0  0  0  0  0  0
  -34.6724    4.0245  -44.2179 C   0  0  0  0  0  0  0  0  0  0  0  0
  -33.8213    3.5823  -44.9603 O   0  0  0  0  0  0  0  0  0  0  0  0
  -35.8559    6.8971  -43.6595 X   0  0  0  0  0  0  0  0  0  0  0  0
  1  2  1  0  0  0  0
  2  3  1  0  0  0  0
  2  4  1  0  0  0  0
  2  5  1  0  0  0  0
  5  6  1  0  0  0  0
  6  7  1  0  0  0  0
  6 11  1  0  0  0  0
  7  8  1  0  0  0  0
  8  9  1  0  0  0  0
  9 10  1  0  0  0  0
  9 13  1  0  0  0  0
 10 11  1  0  0  0  0
 11 12  2  0  0  0  0
M  END
> <Index>
6874

> <PropertyFieldDistance>
nan

$$$$
6508554
BBcorina  12272117083D 1   1.00000     0.00000 
CORINA 4.3.0 0026  30.10.2019
 11 12  0  0  0  0  0  0  0  0999 V2000
  -36.0071    3.5607  -44.3087 N   0  0  0  0  0  0  0  0  0  0  0  0
  -36.9647    4.5739  -43.8363 C   0  0  0  0  0  0  0  0  0  0  0  0
  -36.6500    4.8975  -42.3726 C   0  0  0  0  0  0  0  0  0  0  0  0
  -35.2300    5.2028  -42.2242 N   0  0  0  0  0  0  0  0  0  0  0  0
  -34.7903    5.9223  -41.0262 C   0  0  0  0  0  0  0  0  0  0  0  0
  -34.9446    5.2126  -39.6795 C   0  0  0  0  0  0  0  0  0  0  0  0
  -35.8681    6.3779  -40.0404 C   0  0  0  0  0  0  0  0  0  0  0  0
  -34.3121    4.8501  -43.1304 C   0  0  0  0  0  0  0  0  0  0  0  0
  -33.1485    5.1119  -42.9109 O   0  0  0  0  0  0  0  0  0  0  0  0
  -34.6620    4.1426  -44.4089 C   0  0  0  0  0  0  0  0  0  0  0  0
  -36.5024    2.9005  -45.8064 X   0  0  0  0  0  0  0  0  0  0  0  0
  1  2  1  0  0  0  0
  1 10  1  0  0  0  0
  1 11  1  0  0  0  0
  2  3  1  0  0  0  0
  3  4  1  0  0  0  0
  4  5  1  0  0  0  0
  4  8  1  0  0  0  0
  5  6  1  0  0  0  0
  5  7  1  0  0  0  0
  6  7  1  0  0  0  0
  8  9  2  0  0  0  0
  8 10  1  0  0  0  0
M  END
> <Index>
6875

> <PropertyFieldDistance>
nan

$$$$
8860792
BBcorina  12272117083D 1   1.00000     0.00000 
CORINA 4.3.0 0026  30.10.2019
 14 15  0  0  0  0  0  0  0  0999 V2000
  -36.0034    3.5617  -44.2985 N   0  0  0  0  0  0  0  0  0  0  0  0
  -36.9616    4.5748  -43.8273 C   0  0  0  0  0  0  0  0  0  0  0  0
  -36.6478    4.9060  -42.3671 C   0  0  0  0  0  0  0  0  0  0  0  0
  -35.2272    5.2074  -42.2165 N   0  0  0  0  0  0  0  0  0  0  0  0
  -34.3098    4.8582  -43.1246 C   0  0  0  0  0  0  0  0  0  0  0  0
  -33.1467    5.1250  -42.9078 O   0  0  0  0  0  0  0  0  0  0  0  0
  -34.6588    4.1445  -44.3998 C   0  0  0  0  0  0  0  0  0  0  0  0
  -34.8076    5.8972  -41.0734 C   0  0  0  0  0  0  0  0  0  0  0  0
  -34.7458    7.2883  -41.0708 C   0  0  0  0  0  0  0  0  0  0  0  0
  -34.3238    7.9261  -39.9154 C   0  0  0  0  0  0  0  0  0  0  0  0
  -33.9807    7.1674  -38.8122 C   0  0  0  0  0  0  0  0  0  0  0  0
  -34.0501    5.8507  -38.8470 N   0  0  0  0  0  0  0  0  0  0  0  0
  -34.4461    5.2046  -39.9252 C   0  0  0  0  0  0  0  0  0  0  0  0
  -36.0029    2.1942  -43.2718 X   0  0  0  0  0  0  0  0  0  0  0  0
  1  2  1  0  0  0  0
  1  7  1  0  0  0  0
  1 14  1  0  0  0  0
  2  3  1  0  0  0  0
  3  4  1  0  0  0  0
  4  5  1  0  0  0  0
  4  8  1  0  0  0  0
  5  6  2  0  0  0  0
  5  7  1  0  0  0  0
  8  9  2  0  0  0  0
  8 13  1  0  0  0  0
  9 10  1  0  0  0  0
 10 11  2  0  0  0  0
 11 12  1  0  0  0  0
 12 13  2  0  0  0  0
M  END
> <Index>
6876

> <PropertyFieldDistance>
nan

$$$$
17795798
BBcorina  12272117083D 1   1.00000     0.00000 
CORINA 4.3.0 0026  30.10.2019
  9  9  0  0  0  0  0  0  0  0999 V2000
  -37.6340    5.7823  -41.7158 C   0  0  0  0  0  0  0  0  0  0  0  0
  -36.6170    5.4277  -42.8025 C   0  0  0  0  0  0  0  0  0  0  0  0
  -37.0322    4.1248  -43.4883 C   0  0  0  0  0  0  0  0  0  0  0  0
  -35.9565    3.6536  -44.3558 N   0  0  0  0  0  0  0  0  0  0  0  0
  -34.6946    4.0753  -44.2469 C   0  0  0  0  0  0  0  0  0  0  0  0
  -33.8583    3.6078  -44.9905 O   0  0  0  0  0  0  0  0  0  0  0  0
  -34.2673    5.1056  -43.2401 C   0  0  0  0  0  0  0  0  0  0  0  0
  -35.2900    5.2394  -42.1940 N   0  0  0  0  0  0  0  0  0  0  0  0
  -34.9150    6.5255  -41.1314 X   0  0  0  0  0  0  0  0  0  0  0  0
  1  2  1  0  0  0  0
  2  3  1  0  0  0  0
  2  8  1  0  0  0  0
  3  4  1  0  0  0  0
  4  5  1  0  0  0  0
  5  6  2  0  0  0  0
  5  7  1  0  0  0  0
  7  8  1  0  0  0  0
  8  9  1  0  0  0  0
M  END
> <Index>
6877

> <PropertyFieldDistance>
nan

$$$$
10745662
BBcorina  12272117083D 1   1.00000     0.00000 
CORINA 4.3.0 0026  30.10.2019
  9  9  0  0  0  0  0  0  0  0999 V2000
  -37.4072    5.2196  -41.2795 C   0  0  0  0  0  0  0  0  0  0  0  0
  -36.7050    5.2943  -42.6369 C   0  0  0  0  0  0  0  0  0  0  0  0
  -36.8944    3.9704  -43.3797 C   0  0  0  0  0  0  0  0  0  0  0  0
  -36.0306    3.9694  -44.5715 N   0  0  0  0  0  0  0  0  0  0  0  0
  -34.6184    3.8970  -44.1736 C   0  0  0  0  0  0  0  0  0  0  0  0
  -34.3262    4.9407  -43.1330 C   0  0  0  0  0  0  0  0  0  0  0  0
  -33.1706    5.2400  -42.9188 O   0  0  0  0  0  0  0  0  0  0  0  0
  -35.2829    5.5546  -42.4329 N   0  0  0  0  0  0  0  0  0  0  0  0
  -36.4379    2.6835  -45.6224 X   0  0  0  0  0  0  0  0  0  0  0  0
  1  2  1  0  0  0  0
  2  3  1  0  0  0  0
  2  8  1  0  0  0  0
  3  4  1  0  0  0  0
  4  5  1  0  0  0  0
  4  9  1  0  0  0  0
  5  6  1  0  0  0  0
  6  7  2  0  0  0  0
  6  8  1  0  0  0  0
M  END
> <Index>
6878

> <PropertyFieldDistance>
nan

$$$$
8583756
BBcorina  12272117083D 1   1.00000     0.00000 
CORINA 4.3.0 0026  30.10.2019
  8  8  0  0  0  0  0  0  0  0999 V2000
  -36.1898    2.7915  -45.5054 N   0  0  0  0  0  0  0  0  0  0  0  0
  -35.9840    3.6497  -44.4626 N   0  0  0  0  0  0  0  0  0  0  0  0
  -37.0411    4.4369  -43.8170 C   0  0  0  0  0  0  0  0  0  0  0  0
  -36.4461    4.8907  -42.4635 C   0  0  0  0  0  0  0  0  0  0  0  0
  -34.9302    4.8800  -42.7686 C   0  0  0  0  0  0  0  0  0  0  0  0
  -34.7865    3.8859  -43.8998 C   0  0  0  0  0  0  0  0  0  0  0  0
  -33.7425    3.3765  -44.2484 O   0  0  0  0  0  0  0  0  0  0  0  0
  -36.6389    1.2404  -44.9430 X   0  0  0  0  0  0  0  0  0  0  0  0
  1  2  1  0  0  0  0
  1  8  1  0  0  0  0
  2  3  1  0  0  0  0
  2  6  1  0  0  0  0
  3  4  1  0  0  0  0
  4  5  1  0  0  0  0
  5  6  1  0  0  0  0
  6  7  2  0  0  0  0
M  END
> <Index>
6887

> <PropertyFieldDistance>
nan

$$$$
9050174
BBcorina  12272117083D 1   1.00000     0.00000 
CORINA 4.3.0 0026  30.10.2019
  9  9  0  0  0  0  0  0  0  0999 V2000
  -33.8635    2.3087  -45.3358 O   0  0  0  0  0  0  0  0  0  0  0  0
  -34.5324    2.7696  -44.1600 C   0  0  0  0  0  0  0  0  0  0  0  0
  -34.5532    4.2994  -44.1516 C   0  0  0  0  0  0  0  0  0  0  0  0
  -35.2693    4.7928  -42.8928 C   0  0  0  0  0  0  0  0  0  0  0  0
  -36.7047    4.2633  -42.8820 C   0  0  0  0  0  0  0  0  0  0  0  0
  -36.6839    2.7334  -42.8904 C   0  0  0  0  0  0  0  0  0  0  0  0
  -35.9678    2.2400  -44.1492 C   0  0  0  0  0  0  0  0  0  0  0  0
  -35.9479    0.7712  -44.1573 N   0  0  0  0  0  0  0  0  0  0  0  0
  -35.8447    0.1685  -45.7542 X   0  0  0  0  0  0  0  0  0  0  0  0
  1  2  1  0  0  0  0
  2  3  1  0  0  0  0
  2  7  1  0  0  0  0
  3  4  1  0  0  0  0
  4  5  1  0  0  0  0
  5  6  1  0  0  0  0
  6  7  1  0  0  0  0
  7  8  1  0  0  0  0
  8  9  1  0  0  0  0
M  END
> <Index>
6892

> <PropertyFieldDistance>
nan

$$$$
12888716
BBcorina  12272117083D 1   1.00000     0.00000 
CORINA 4.3.0 0026  30.10.2019
 11 12  0  0  0  0  0  0  0  0999 V2000
  -36.0142    3.8132  -44.5144 N   0  0  0  0  0  0  0  0  0  0  0  0
  -36.9005    3.9864  -43.3595 C   0  0  0  0  0  0  0  0  0  0  0  0
  -36.6814    5.3845  -42.7653 C   0  0  0  0  0  0  0  0  0  0  0  0
  -35.2806    5.4583  -42.3184 N   0  0  0  0  0  0  0  0  0  0  0  0
  -34.3034    4.8981  -43.1497 C   0  0  0  0  0  0  0  0  0  0  0  0
  -33.0262    5.1423  -42.9022 N   0  0  0  0  0  0  0  0  0  0  0  0
  -32.0637    4.6303  -43.6470 C   0  0  0  0  0  0  0  0  0  0  0  0
  -32.3569    3.8142  -44.7200 C   0  0  0  0  0  0  0  0  0  0  0  0
  -33.6825    3.5322  -45.0193 C   0  0  0  0  0  0  0  0  0  0  0  0
  -34.6774    4.0859  -44.2202 C   0  0  0  0  0  0  0  0  0  0  0  0
  -36.5514    4.7447  -45.8441 X   0  0  0  0  0  0  0  0  0  0  0  0
  1  2  1  0  0  0  0
  1 10  1  0  0  0  0
  1 11  1  0  0  0  0
  2  3  1  0  0  0  0
  3  4  1  0  0  0  0
  4  5  1  0  0  0  0
  5  6  2  0  0  0  0
  5 10  1  0  0  0  0
  6  7  1  0  0  0  0
  7  8  2  0  0  0  0
  8  9  1  0  0  0  0
  9 10  2  0  0  0  0
M  END
> <Index>
6896

> <PropertyFieldDistance>
nan

$$$$
15781892
BBcorina  12272117083D 1   1.00000     0.00000 
CORINA 4.3.0 0026  30.10.2019
  7  7  0  0  0  0  0  0  0  0999 V2000
  -35.7766    2.1904  -45.3857 N   0  0  0  0  0  0  0  0  0  0  0  0
  -35.2672    3.3013  -44.5705 C   0  0  0  0  0  0  0  0  0  0  0  0
  -34.4685    2.7640  -43.3619 C   0  0  0  0  0  0  0  0  0  0  0  0
  -35.2437    3.2881  -42.1328 C   0  0  0  0  0  0  0  0  0  0  0  0
  -35.9569    4.4497  -42.6167 O   0  0  0  0  0  0  0  0  0  0  0  0
  -36.4336    4.0864  -43.9306 C   0  0  0  0  0  0  0  0  0  0  0  0
  -36.8101    1.1819  -44.4698 X   0  0  0  0  0  0  0  0  0  0  0  0
  1  2  1  0  0  0  0
  1  7  1  0  0  0  0
  2  3  1  0  0  0  0
  2  6  1  0  0  0  0
  3  4  1  0  0  0  0
  4  5  1  0  0  0  0
  5  6  1  0  0  0  0
M  END
> <Index>
6902

> <PropertyFieldDistance>
nan

$$$$
13655560
BBcorina  12272117083D 1   1.00000     0.00000 
CORINA 4.3.0 0026  30.10.2019
 15 16  0  0  0  0  0  0  0  0999 V2000
  -38.4627    3.9666  -43.6161 C   0  0  0  0  0  0  0  0  0  0  0  0
  -36.9965    4.0173  -43.1815 C   0  0  0  0  0  0  0  0  0  0  0  0
  -36.6309    5.4493  -42.7839 C   0  0  0  0  0  0  0  0  0  0  0  0
  -35.2122    5.5026  -42.4046 N   0  0  0  0  0  0  0  0  0  0  0  0
  -34.3556    5.0724  -43.5185 C   0  0  0  0  0  0  0  0  0  0  0  0
  -34.7212    3.6403  -43.9161 C   0  0  0  0  0  0  0  0  0  0  0  0
  -36.1399    3.5871  -44.2955 N   0  0  0  0  0  0  0  0  0  0  0  0
  -36.5114    2.2427  -44.7565 C   0  0  0  0  0  0  0  0  0  0  0  0
  -35.7881    1.9348  -46.0422 C   0  0  0  0  0  0  0  0  0  0  0  0
  -34.5463    1.3284  -46.0085 C   0  0  0  0  0  0  0  0  0  0  0  0
  -33.8830    1.0456  -47.1879 C   0  0  0  0  0  0  0  0  0  0  0  0
  -34.4614    1.3693  -48.4009 C   0  0  0  0  0  0  0  0  0  0  0  0
  -35.7031    1.9758  -48.4347 C   0  0  0  0  0  0  0  0  0  0  0  0
  -36.3688    2.2538  -47.2555 C   0  0  0  0  0  0  0  0  0  0  0  0
  -34.7798    7.0675  -41.8678 X   0  0  0  0  0  0  0  0  0  0  0  0
  1  2  1  0  0  0  0
  2  3  1  0  0  0  0
  2  7  1  0  0  0  0
  3  4  1  0  0  0  0
  4  5  1  0  0  0  0
  4 15  1  0  0  0  0
  5  6  1  0  0  0  0
  6  7  1  0  0  0  0
  7  8  1  0  0  0  0
  8  9  1  0  0  0  0
  9 10  2  0  0  0  0
  9 14  1  0  0  0  0
 10 11  1  0  0  0  0
 11 12  2  0  0  0  0
 12 13  1  0  0  0  0
 13 14  2  0  0  0  0
M  END
> <Index>
6906

> <PropertyFieldDistance>
nan

$$$$
12299578
BBcorina  12272117083D 1   1.00000     0.00000 
CORINA 4.3.0 0026  30.10.2019
 10 10  0  0  0  0  0  0  0  0999 V2000
  -36.0173    3.5926  -44.4913 N   0  0  0  0  0  0  0  0  0  0  0  0
  -36.3933    2.1752  -44.5752 C   0  0  0  0  0  0  0  0  0  0  0  0
  -36.1059    1.6538  -45.9847 C   0  0  0  0  0  0  0  0  0  0  0  0
  -36.4975    0.1773  -46.0720 C   0  0  0  0  0  0  0  0  0  0  0  0
  -36.3286   -0.3164  -47.5145 C   0  0  0  0  0  0  0  0  0  0  0  0
  -36.8946   -1.7347  -47.6147 C   0  0  0  0  0  0  0  0  0  0  0  0
  -36.3439   -2.5901  -46.5116 C   0  0  0  0  0  0  0  0  0  0  0  0
  -35.7780   -2.1229  -45.4452 C   0  0  0  0  0  0  0  0  0  0  0  0
  -35.5848   -0.6609  -45.1676 C   0  0  0  0  0  0  0  0  0  0  0  0
  -36.3231    4.2163  -42.9287 X   0  0  0  0  0  0  0  0  0  0  0  0
  1  2  1  0  0  0  0
  1 10  1  0  0  0  0
  2  3  1  0  0  0  0
  3  4  1  0  0  0  0
  4  5  1  0  0  0  0
  4  9  1  0  0  0  0
  5  6  1  0  0  0  0
  6  7  1  0  0  0  0
  7  8  2  0  0  0  0
  8  9  1  0  0  0  0
M  END
> <Index>
6910

> <PropertyFieldDistance>
nan

$$$$
5635552
BBcorina  12272117083D 1   1.00000     0.00000 
CORINA 4.3.0 0026  30.10.2019
 10 10  0  0  0  0  0  0  0  0999 V2000
  -37.0497    4.1361  -44.2808 C   0  0  0  0  0  0  0  0  0  0  0  0
  -36.3097    3.6293  -43.0413 C   0  0  0  0  0  0  0  0  0  0  0  0
  -37.0258    4.1227  -41.7825 C   0  0  0  0  0  0  0  0  0  0  0  0
  -36.2889    2.0994  -43.0497 C   0  0  0  0  0  0  0  0  0  0  0  0
  -35.5728    1.6060  -44.3085 C   0  0  0  0  0  0  0  0  0  0  0  0
  -34.1374    2.1356  -44.3193 C   0  0  0  0  0  0  0  0  0  0  0  0
  -34.1582    3.6654  -44.3109 C   0  0  0  0  0  0  0  0  0  0  0  0
  -34.8743    4.1588  -43.0521 C   0  0  0  0  0  0  0  0  0  0  0  0
  -33.4498    1.6618  -45.5280 N   0  0  0  0  0  0  0  0  0  0  0  0
  -34.2461    2.2072  -46.9396 X   0  0  0  0  0  0  0  0  0  0  0  0
  1  2  1  0  0  0  0
  2  3  1  0  0  0  0
  2  4  1  0  0  0  0
  2  8  1  0  0  0  0
  4  5  1  0  0  0  0
  5  6  1  0  0  0  0
  6  7  1  0  0  0  0
  6  9  1  0  0  0  0
  7  8  1  0  0  0  0
  9 10  1  0  0  0  0
M  END
> <Index>
6947

> <PropertyFieldDistance>
nan

$$$$
9195486
BBcorina  12272117083D 1   1.00000     0.00000 
CORINA 4.3.0 0026  30.10.2019
 10 10  0  0  0  0  0  0  0  0999 V2000
  -36.3891    2.2485  -44.6407 C   0  0  0  0  0  0  0  0  0  0  0  0
  -35.9428    3.5646  -44.1769 N   0  0  0  0  0  0  0  0  0  0  0  0
  -36.9314    4.5994  -43.8307 C   0  0  0  0  0  0  0  0  0  0  0  0
  -36.9047    4.8050  -42.3137 C   0  0  0  0  0  0  0  0  0  0  0  0
  -35.8269    5.7988  -41.9247 C   0  0  0  0  0  0  0  0  0  0  0  0
  -34.4701    5.3254  -42.1687 N   0  0  0  0  0  0  0  0  0  0  0  0
  -34.1721    5.1916  -43.6006 C   0  0  0  0  0  0  0  0  0  0  0  0
  -34.6346    3.8287  -44.0704 C   0  0  0  0  0  0  0  0  0  0  0  0
  -33.8182    2.9753  -44.3462 O   0  0  0  0  0  0  0  0  0  0  0  0
  -33.3223    6.3296  -41.3951 X   0  0  0  0  0  0  0  0  0  0  0  0
  1  2  1  0  0  0  0
  2  3  1  0  0  0  0
  2  8  1  0  0  0  0
  3  4  1  0  0  0  0
  4  5  1  0  0  0  0
  5  6  1  0  0  0  0
  6  7  1  0  0  0  0
  6 10  1  0  0  0  0
  7  8  1  0  0  0  0
  8  9  2  0  0  0  0
M  END
> <Index>
6948

> <PropertyFieldDistance>
nan

$$$$
13602246
BBcorina  12272117083D 1   1.00000     0.00000 
CORINA 4.3.0 0026  30.10.2019
 10 11  0  0  0  0  0  0  0  0999 V2000
  -35.9603    3.4697  -44.1615 N   0  0  0  0  0  0  0  0  0  0  0  0
  -36.9626    4.4943  -43.8364 C   0  0  0  0  0  0  0  0  0  0  0  0
  -36.7025    5.0344  -42.4272 C   0  0  0  0  0  0  0  0  0  0  0  0
  -35.2327    5.4231  -42.3309 C   0  0  0  0  0  0  0  0  0  0  0  0
  -34.7018    6.2440  -41.3435 C   0  0  0  0  0  0  0  0  0  0  0  0
  -33.3937    6.4716  -41.4266 C   0  0  0  0  0  0  0  0  0  0  0  0
  -32.7332    5.6176  -42.8138 S   0  0  0  0  0  0  0  0  0  0  0  0
  -34.3206    4.9859  -43.2221 C   0  0  0  0  0  0  0  0  0  0  0  0
  -34.6413    4.0793  -44.3906 C   0  0  0  0  0  0  0  0  0  0  0  0
  -36.4489    2.5408  -45.5115 X   0  0  0  0  0  0  0  0  0  0  0  0
  1  2  1  0  0  0  0
  1  9  1  0  0  0  0
  1 10  1  0  0  0  0
  2  3  1  0  0  0  0
  3  4  1  0  0  0  0
  4  5  1  0  0  0  0
  4  8  2  0  0  0  0
  5  6  2  0  0  0  0
  6  7  1  0  0  0  0
  7  8  1  0  0  0  0
  8  9  1  0  0  0  0
M  END
> <Index>
6963

> <PropertyFieldDistance>
nan

$$$$
12106390
BBcorina  12272117083D 1   1.00000     0.00000 
CORINA 4.3.0 0026  30.10.2019
  8  8  0  0  0  0  0  0  0  0999 V2000
  -36.0217    3.7054  -44.5516 N   0  0  0  0  0  0  0  0  0  0  0  0
  -37.0796    4.3646  -43.7642 C   0  0  0  0  0  0  0  0  0  0  0  0
  -36.4196    4.9319  -42.4898 C   0  0  0  0  0  0  0  0  0  0  0  0
  -35.1316    4.0731  -42.3544 C   0  0  0  0  0  0  0  0  0  0  0  0
  -34.7367    3.8612  -43.8373 C   0  0  0  0  0  0  0  0  0  0  0  0
  -35.4244    2.7885  -41.6980 C   0  0  0  0  0  0  0  0  0  0  0  0
  -35.6503    1.7972  -41.1914 N   0  0  0  0  0  0  0  0  0  0  0  0
  -35.9306    4.3633  -46.1274 X   0  0  0  0  0  0  0  0  0  0  0  0
  1  2  1  0  0  0  0
  1  5  1  0  0  0  0
  1  8  1  0  0  0  0
  2  3  1  0  0  0  0
  3  4  1  0  0  0  0
  4  5  1  0  0  0  0
  4  6  1  0  0  0  0
  6  7  3  0  0  0  0
M  END
> <Index>
6977

> <PropertyFieldDistance>
nan

$$$$
14794616
BBcorina  12272117083D 1   1.00000     0.00000 
CORINA 4.3.0 0026  30.10.2019
 11 12  0  0  0  0  0  0  0  0999 V2000
  -38.4206    3.9891  -43.8074 C   0  0  0  0  0  0  0  0  0  0  0  0
  -36.9976    4.5481  -43.8661 C   0  0  0  0  0  0  0  0  0  0  0  0
  -36.4705    4.8312  -42.4406 C   0  0  0  0  0  0  0  0  0  0  0  0
  -34.9868    4.4427  -42.4882 C   0  0  0  0  0  0  0  0  0  0  0  0
  -34.6738    3.3450  -41.4684 C   0  0  0  0  0  0  0  0  0  0  0  0
  -33.5829    3.9182  -40.5366 C   0  0  0  0  0  0  0  0  0  0  0  0
  -33.7484    5.4542  -40.6568 C   0  0  0  0  0  0  0  0  0  0  0  0
  -34.0966    5.6476  -42.1557 C   0  0  0  0  0  0  0  0  0  0  0  0
  -34.7260    3.9524  -43.9200 C   0  0  0  0  0  0  0  0  0  0  0  0
  -36.0635    3.5313  -44.4164 N   0  0  0  0  0  0  0  0  0  0  0  0
  -36.1073    3.5204  -46.1258 X   0  0  0  0  0  0  0  0  0  0  0  0
  1  2  1  0  0  0  0
  2  3  1  0  0  0  0
  2 10  1  0  0  0  0
  3  4  1  0  0  0  0
  4  5  1  0  0  0  0
  4  8  1  0  0  0  0
  4  9  1  0  0  0  0
  5  6  1  0  0  0  0
  6  7  1  0  0  0  0
  7  8  1  0  0  0  0
  9 10  1  0  0  0  0
 10 11  1  0  0  0  0
M  END
> <Index>
6985

> <PropertyFieldDistance>
nan

$$$$
10338660
BBcorina  12272117083D 1   1.00000     0.00000 
CORINA 4.3.0 0026  30.10.2019
 10 11  0  0  0  0  0  0  0  0999 V2000
  -35.9503    3.4802  -44.1372 N   0  0  0  0  0  0  0  0  0  0  0  0
  -36.9582    4.5023  -43.8234 C   0  0  0  0  0  0  0  0  0  0  0  0
  -36.7000    5.0777  -42.4247 C   0  0  0  0  0  0  0  0  0  0  0  0
  -35.2878    5.4597  -42.3413 N   0  0  0  0  0  0  0  0  0  0  0  0
  -34.6741    6.2599  -41.4570 C   0  0  0  0  0  0  0  0  0  0  0  0
  -33.4039    6.3234  -41.7657 N   0  0  0  0  0  0  0  0  0  0  0  0
  -33.1716    5.5661  -42.8550 C   0  0  0  0  0  0  0  0  0  0  0  0
  -34.3329    5.0183  -43.2264 C   0  0  0  0  0  0  0  0  0  0  0  0
  -34.6284    4.0883  -44.3744 C   0  0  0  0  0  0  0  0  0  0  0  0
  -36.4364    2.5301  -45.4734 X   0  0  0  0  0  0  0  0  0  0  0  0
  1  2  1  0  0  0  0
  1  9  1  0  0  0  0
  1 10  1  0  0  0  0
  2  3  1  0  0  0  0
  3  4  1  0  0  0  0
  4  5  1  0  0  0  0
  4  8  1  0  0  0  0
  5  6  2  0  0  0  0
  6  7  1  0  0  0  0
  7  8  2  0  0  0  0
  8  9  1  0  0  0  0
M  END
> <Index>
6986

> <PropertyFieldDistance>
nan

$$$$
11570724
BBcorina  12272117083D 1   1.00000     0.00000 
CORINA 4.3.0 0026  30.10.2019
 11 12  0  0  0  0  0  0  0  0999 V2000
  -34.0113    5.9057  -42.7369 O   0  0  0  0  0  0  0  0  0  0  0  0
  -35.0486    5.3736  -43.5634 C   0  0  0  0  0  0  0  0  0  0  0  0
  -36.3861    5.2931  -42.7812 C   0  0  0  0  0  0  0  0  0  0  0  0
  -37.1153    4.1469  -43.5257 C   0  0  0  0  0  0  0  0  0  0  0  0
  -36.0497    3.1808  -43.8675 N   0  0  0  0  0  0  0  0  0  0  0  0
  -34.7628    3.8988  -43.9162 C   0  0  0  0  0  0  0  0  0  0  0  0
  -36.3312    2.5176  -45.1478 C   0  0  0  0  0  0  0  0  0  0  0  0
  -37.6410    1.7090  -45.1518 C   0  0  0  0  0  0  0  0  0  0  0  0
  -36.8848    0.6755  -45.8930 N   0  0  0  0  0  0  0  0  0  0  0  0
  -35.6096    1.1687  -45.3187 C   0  0  0  0  0  0  0  0  0  0  0  0
  -37.2543   -0.8895  -45.3114 X   0  0  0  0  0  0  0  0  0  0  0  0
  1  2  1  0  0  0  0
  2  3  1  0  0  0  0
  2  6  1  0  0  0  0
  3  4  1  0  0  0  0
  4  5  1  0  0  0  0
  5  6  1  0  0  0  0
  5  7  1  0  0  0  0
  7  8  1  0  0  0  0
  7 10  1  0  0  0  0
  8  9  1  0  0  0  0
  9 10  1  0  0  0  0
  9 11  1  0  0  0  0
M  END
> <Index>
6988

> <PropertyFieldDistance>
nan

$$$$
8601054
BBcorina  12272117083D 1   1.00000     0.00000 
CORINA 4.3.0 0026  30.10.2019
 11 11  0  0  0  0  0  0  0  0999 V2000
  -35.9215    2.1859  -46.1580 C   0  0  0  0  0  0  0  0  0  0  0  0
  -36.4120    2.1257  -44.7100 C   0  0  0  0  0  0  0  0  0  0  0  0
  -35.7690    0.9309  -44.0030 C   0  0  0  0  0  0  0  0  0  0  0  0
  -36.0400    3.3614  -44.0166 N   0  0  0  0  0  0  0  0  0  0  0  0
  -37.1012    4.1939  -43.4573 C   0  0  0  0  0  0  0  0  0  0  0  0
  -36.5207    5.1560  -42.4192 C   0  0  0  0  0  0  0  0  0  0  0  0
  -35.3622    5.8459  -43.0096 N   0  0  0  0  0  0  0  0  0  0  0  0
  -34.2543    4.9008  -43.2034 C   0  0  0  0  0  0  0  0  0  0  0  0
  -34.7439    3.6770  -43.9247 C   0  0  0  0  0  0  0  0  0  0  0  0
  -33.9292    2.9443  -44.4448 O   0  0  0  0  0  0  0  0  0  0  0  0
  -34.8770    7.1683  -42.0401 X   0  0  0  0  0  0  0  0  0  0  0  0
  1  2  1  0  0  0  0
  2  3  1  0  0  0  0
  2  4  1  0  0  0  0
  4  5  1  0  0  0  0
  4  9  1  0  0  0  0
  5  6  1  0  0  0  0
  6  7  1  0  0  0  0
  7  8  1  0  0  0  0
  7 11  1  0  0  0  0
  8  9  1  0  0  0  0
  9 10  2  0  0  0  0
M  END
> <Index>
6993

> <PropertyFieldDistance>
nan

$$$$
10964458
BBcorina  12272117083D 1   1.00000     0.00000 
CORINA 4.3.0 0026  30.10.2019
  9  9  0  0  0  0  0  0  0  0999 V2000
  -36.6247    5.4363  -40.1134 N   0  0  0  0  0  0  0  0  0  0  0  0
  -37.2393    4.7188  -41.2383 C   0  0  0  0  0  0  0  0  0  0  0  0
  -36.4294    4.9757  -42.5106 C   0  0  0  0  0  0  0  0  0  0  0  0
  -37.0736    4.2745  -43.7271 C   0  0  0  0  0  0  0  0  0  0  0  0
  -35.9513    3.8125  -44.5523 N   0  0  0  0  0  0  0  0  0  0  0  0
  -34.8034    3.8004  -43.8529 C   0  0  0  0  0  0  0  0  0  0  0  0
  -33.7267    3.4545  -44.2910 O   0  0  0  0  0  0  0  0  0  0  0  0
  -35.0502    4.2801  -42.4396 C   0  0  0  0  0  0  0  0  0  0  0  0
  -37.5008    5.1757  -38.6682 X   0  0  0  0  0  0  0  0  0  0  0  0
  1  2  1  0  0  0  0
  1  9  1  0  0  0  0
  2  3  1  0  0  0  0
  3  4  1  0  0  0  0
  3  8  1  0  0  0  0
  4  5  1  0  0  0  0
  5  6  1  0  0  0  0
  6  7  2  0  0  0  0
  6  8  1  0  0  0  0
M  END
> <Index>
7003

> <PropertyFieldDistance>
nan

$$$$
12915246
BBcorina  12272117083D 1   1.00000     0.00000 
CORINA 4.3.0 0026  30.10.2019
 11 12  0  0  0  0  0  0  0  0999 V2000
  -35.9633    3.4675  -44.1604 N   0  0  0  0  0  0  0  0  0  0  0  0
  -36.9733    4.4884  -43.8397 C   0  0  0  0  0  0  0  0  0  0  0  0
  -36.6947    5.0281  -42.4358 C   0  0  0  0  0  0  0  0  0  0  0  0
  -35.2473    5.4252  -42.3192 C   0  0  0  0  0  0  0  0  0  0  0  0
  -34.8690    6.2141  -41.3226 N   0  0  0  0  0  0  0  0  0  0  0  0
  -33.6090    6.5739  -41.1867 C   0  0  0  0  0  0  0  0  0  0  0  0
  -32.6782    6.1700  -42.0276 N   0  0  0  0  0  0  0  0  0  0  0  0
  -32.9829    5.3833  -43.0469 C   0  0  0  0  0  0  0  0  0  0  0  0
  -34.3008    4.9847  -43.2216 C   0  0  0  0  0  0  0  0  0  0  0  0
  -34.6552    4.0949  -44.3802 C   0  0  0  0  0  0  0  0  0  0  0  0
  -35.8762    2.2839  -42.9294 X   0  0  0  0  0  0  0  0  0  0  0  0
  1  2  1  0  0  0  0
  1 10  1  0  0  0  0
  1 11  1  0  0  0  0
  2  3  1  0  0  0  0
  3  4  1  0  0  0  0
  4  5  2  0  0  0  0
  4  9  1  0  0  0  0
  5  6  1  0  0  0  0
  6  7  2  0  0  0  0
  7  8  1  0  0  0  0
  8  9  2  0  0  0  0
  9 10  1  0  0  0  0
M  END
> <Index>
7006

> <PropertyFieldDistance>
nan

$$$$
13652672
BBcorina  12272117083D 1   1.00000     0.00000 
CORINA 4.3.0 0026  30.10.2019
 13 14  0  0  0  0  0  0  0  0999 V2000
  -33.9907    8.3368  -38.3812 C   0  0  0  0  0  0  0  0  0  0  0  0
  -34.3959    7.7682  -39.7167 C   0  0  0  0  0  0  0  0  0  0  0  0
  -34.6321    8.4463  -40.8036 N   0  0  0  0  0  0  0  0  0  0  0  0
  -34.9528    7.6366  -41.7509 N   0  0  0  0  0  0  0  0  0  0  0  0
  -34.9321    6.4144  -41.3004 C   0  0  0  0  0  0  0  0  0  0  0  0
  -34.5797    6.4687  -40.0048 O   0  0  0  0  0  0  0  0  0  0  0  0
  -35.2463    5.1684  -42.0875 C   0  0  0  0  0  0  0  0  0  0  0  0
  -36.6796    5.2477  -42.6204 C   0  0  0  0  0  0  0  0  0  0  0  0
  -36.9723    4.0084  -43.4693 C   0  0  0  0  0  0  0  0  0  0  0  0
  -36.0194    3.9412  -44.5845 N   0  0  0  0  0  0  0  0  0  0  0  0
  -34.6397    3.8168  -44.0973 C   0  0  0  0  0  0  0  0  0  0  0  0
  -34.2763    5.0495  -43.2662 C   0  0  0  0  0  0  0  0  0  0  0  0
  -36.4111    2.6614  -45.6490 X   0  0  0  0  0  0  0  0  0  0  0  0
  1  2  1  0  0  0  0
  2  3  2  0  0  0  0
  2  6  1  0  0  0  0
  3  4  1  0  0  0  0
  4  5  2  0  0  0  0
  5  6  1  0  0  0  0
  5  7  1  0  0  0  0
  7  8  1  0  0  0  0
  7 12  1  0  0  0  0
  8  9  1  0  0  0  0
  9 10  1  0  0  0  0
 10 11  1  0  0  0  0
 10 13  1  0  0  0  0
 11 12  1  0  0  0  0
M  END
> <Index>
7008

> <PropertyFieldDistance>
nan

$$$$
16514524
BBcorina  12272117083D 1   1.00000     0.00000 
CORINA 4.3.0 0026  30.10.2019
  9  9  0  0  0  0  0  0  0  0999 V2000
  -31.9098    4.7621  -43.7054 O   0  0  0  0  0  0  0  0  0  0  0  0
  -32.9630    5.6821  -43.4116 C   0  0  0  0  0  0  0  0  0  0  0  0
  -34.2558    4.9088  -43.1443 C   0  0  0  0  0  0  0  0  0  0  0  0
  -35.3535    5.8832  -42.7080 C   0  0  0  0  0  0  0  0  0  0  0  0
  -36.6587    5.1099  -42.5007 C   0  0  0  0  0  0  0  0  0  0  0  0
  -37.0290    4.3869  -43.7977 C   0  0  0  0  0  0  0  0  0  0  0  0
  -35.9479    3.4664  -44.1723 N   0  0  0  0  0  0  0  0  0  0  0  0
  -34.6959    4.1916  -44.4226 C   0  0  0  0  0  0  0  0  0  0  0  0
  -36.3899    2.5210  -45.5269 X   0  0  0  0  0  0  0  0  0  0  0  0
  1  2  1  0  0  0  0
  2  3  1  0  0  0  0
  3  4  1  0  0  0  0
  3  8  1  0  0  0  0
  4  5  1  0  0  0  0
  5  6  1  0  0  0  0
  6  7  1  0  0  0  0
  7  8  1  0  0  0  0
  7  9  1  0  0  0  0
M  END
> <Index>
7009

> <PropertyFieldDistance>
nan

$$$$
8930268
BBcorina  12272117083D 1   1.00000     0.00000 
CORINA 4.3.0 0026  30.10.2019
 10 11  0  0  0  0  0  0  0  0999 V2000
  -35.9512    3.4805  -44.1384 N   0  0  0  0  0  0  0  0  0  0  0  0
  -36.9627    4.4993  -43.8233 C   0  0  0  0  0  0  0  0  0  0  0  0
  -36.6938    5.0793  -42.4283 C   0  0  0  0  0  0  0  0  0  0  0  0
  -35.2807    5.4522  -42.3525 N   0  0  0  0  0  0  0  0  0  0  0  0
  -34.6354    6.2806  -41.4344 N   0  0  0  0  0  0  0  0  0  0  0  0
  -33.3718    6.3089  -41.7812 C   0  0  0  0  0  0  0  0  0  0  0  0
  -33.1998    5.5441  -42.8623 N   0  0  0  0  0  0  0  0  0  0  0  0
  -34.3380    5.0217  -43.2161 C   0  0  0  0  0  0  0  0  0  0  0  0
  -34.6312    4.0934  -44.3690 C   0  0  0  0  0  0  0  0  0  0  0  0
  -36.4308    2.5353  -45.4802 X   0  0  0  0  0  0  0  0  0  0  0  0
  1  2  1  0  0  0  0
  1  9  1  0  0  0  0
  1 10  1  0  0  0  0
  2  3  1  0  0  0  0
  3  4  1  0  0  0  0
  4  5  1  0  0  0  0
  4  8  1  0  0  0  0
  5  6  2  0  0  0  0
  6  7  1  0  0  0  0
  7  8  2  0  0  0  0
  8  9  1  0  0  0  0
M  END
> <Index>
7011

> <PropertyFieldDistance>
nan

$$$$
15419726
BBcorina  12272117083D 1   1.00000     0.00000 
CORINA 4.3.0 0026  30.10.2019
 11 12  0  0  0  0  0  0  0  0999 V2000
  -35.9491    3.4920  -44.1516 N   0  0  0  0  0  0  0  0  0  0  0  0
  -36.9985    4.4547  -43.7997 C   0  0  0  0  0  0  0  0  0  0  0  0
  -36.6911    5.0842  -42.4468 C   0  0  0  0  0  0  0  0  0  0  0  0
  -37.4343    6.4302  -42.2948 C   0  0  0  0  0  0  0  0  0  0  0  0
  -36.5461    7.1997  -41.2871 C   0  0  0  0  0  0  0  0  0  0  0  0
  -35.1673    6.5268  -41.3743 C   0  0  0  0  0  0  0  0  0  0  0  0
  -35.2714    5.4721  -42.3914 N   0  0  0  0  0  0  0  0  0  0  0  0
  -34.2931    4.9779  -43.1658 C   0  0  0  0  0  0  0  0  0  0  0  0
  -33.1306    5.1975  -42.8989 O   0  0  0  0  0  0  0  0  0  0  0  0
  -34.6543    4.1455  -44.3721 C   0  0  0  0  0  0  0  0  0  0  0  0
  -36.4041    2.5592  -45.5108 X   0  0  0  0  0  0  0  0  0  0  0  0
  1  2  1  0  0  0  0
  1 10  1  0  0  0  0
  1 11  1  0  0  0  0
  2  3  1  0  0  0  0
  3  4  1  0  0  0  0
  3  7  1  0  0  0  0
  4  5  1  0  0  0  0
  5  6  1  0  0  0  0
  6  7  1  0  0  0  0
  7  8  1  0  0  0  0
  8  9  2  0  0  0  0
  8 10  1  0  0  0  0
M  END
> <Index>
7026

> <PropertyFieldDistance>
nan

$$$$
12649770
BBcorina  12272117083D 1   1.00000     0.00000 
CORINA 4.3.0 0026  30.10.2019
  9  9  0  0  0  0  0  0  0  0999 V2000
  -36.4189    2.1606  -44.7040 C   0  0  0  0  0  0  0  0  0  0  0  0
  -36.0197    3.4874  -44.2282 N   0  0  0  0  0  0  0  0  0  0  0  0
  -36.8471    4.4925  -43.8692 C   0  0  0  0  0  0  0  0  0  0  0  0
  -36.1266    5.5151  -43.4978 N   0  0  0  0  0  0  0  0  0  0  0  0
  -34.8267    5.2061  -43.6144 C   0  0  0  0  0  0  0  0  0  0  0  0
  -34.7382    3.9419  -44.0698 C   0  0  0  0  0  0  0  0  0  0  0  0
  -33.4719    3.1747  -44.3505 C   0  0  0  0  0  0  0  0  0  0  0  0
  -33.1207    2.3633  -43.1773 N   0  0  0  0  0  0  0  0  0  0  0  0
  -31.6862    1.4746  -43.4540 X   0  0  0  0  0  0  0  0  0  0  0  0
  1  2  1  0  0  0  0
  2  3  1  0  0  0  0
  2  6  1  0  0  0  0
  3  4  2  0  0  0  0
  4  5  1  0  0  0  0
  5  6  2  0  0  0  0
  6  7  1  0  0  0  0
  7  8  1  0  0  0  0
  8  9  1  0  0  0  0
M  END
> <Index>
7036

> <PropertyFieldDistance>
nan

$$$$
13761712
BBcorina  12272117083D 1   1.00000     0.00000 
CORINA 4.3.0 0026  30.10.2019
 11 12  0  0  0  0  0  0  0  0999 V2000
  -34.0612    7.2125  -40.9612 C   0  0  0  0  0  0  0  0  0  0  0  0
  -35.2781    6.4551  -41.4267 C   0  0  0  0  0  0  0  0  0  0  0  0
  -36.4824    6.5611  -40.9258 N   0  0  0  0  0  0  0  0  0  0  0  0
  -37.3148    5.7393  -41.5897 C   0  0  0  0  0  0  0  0  0  0  0  0
  -36.6028    5.1076  -42.5281 C   0  0  0  0  0  0  0  0  0  0  0  0
  -37.0496    4.0888  -43.5443 C   0  0  0  0  0  0  0  0  0  0  0  0
  -36.0003    3.9850  -44.5745 N   0  0  0  0  0  0  0  0  0  0  0  0
  -34.6745    3.7937  -43.9684 C   0  0  0  0  0  0  0  0  0  0  0  0
  -34.2212    5.0919  -43.2876 C   0  0  0  0  0  0  0  0  0  0  0  0
  -35.3092    5.5593  -42.4246 N   0  0  0  0  0  0  0  0  0  0  0  0
  -36.0126    5.3521  -45.6017 X   0  0  0  0  0  0  0  0  0  0  0  0
  1  2  1  0  0  0  0
  2  3  2  0  0  0  0
  2 10  1  0  0  0  0
  3  4  1  0  0  0  0
  4  5  2  0  0  0  0
  5  6  1  0  0  0  0
  5 10  1  0  0  0  0
  6  7  1  0  0  0  0
  7  8  1  0  0  0  0
  7 11  1  0  0  0  0
  8  9  1  0  0  0  0
  9 10  1  0  0  0  0
M  END
> <Index>
7039

> <PropertyFieldDistance>
nan

$$$$
5137560
BBcorina  12272117083D 1   1.00000     0.00000 
CORINA 4.3.0 0026  30.10.2019
  8  8  0  0  0  0  0  0  0  0999 V2000
  -35.0000    0.8860  -43.7332 N   0  0  0  0  0  0  0  0  0  0  0  0
  -35.0199    2.3549  -43.7251 C   0  0  0  0  0  0  0  0  0  0  0  0
  -35.7702    2.8672  -44.9611 C   0  0  0  0  0  0  0  0  0  0  0  0
  -35.6220    4.3890  -45.0209 C   0  0  0  0  0  0  0  0  0  0  0  0
  -35.9592    4.9940  -43.6896 C   0  0  0  0  0  0  0  0  0  0  0  0
  -36.0104    4.3265  -42.5818 C   0  0  0  0  0  0  0  0  0  0  0  0
  -35.7447    2.8526  -42.4726 C   0  0  0  0  0  0  0  0  0  0  0  0
  -33.6017    0.2878  -42.9515 X   0  0  0  0  0  0  0  0  0  0  0  0
  1  2  1  0  0  0  0
  1  8  1  0  0  0  0
  2  3  1  0  0  0  0
  2  7  1  0  0  0  0
  3  4  1  0  0  0  0
  4  5  1  0  0  0  0
  5  6  2  0  0  0  0
  6  7  1  0  0  0  0
M  END
> <Index>
7047

> <PropertyFieldDistance>
nan

$$$$
7555766
BBcorina  12272117083D 1   1.00000     0.00000 
CORINA 4.3.0 0026  30.10.2019
 10 10  0  0  0  0  0  0  0  0999 V2000
  -33.0822    5.7252  -43.6613 N   0  0  0  0  0  0  0  0  0  0  0  0
  -34.2662    4.9917  -43.1945 C   0  0  0  0  0  0  0  0  0  0  0  0
  -35.4066    5.9783  -42.9215 C   0  0  0  0  0  0  0  0  0  0  0  0
  -36.6613    5.1865  -42.5481 C   0  0  0  0  0  0  0  0  0  0  0  0
  -36.9660    4.1935  -43.6383 C   0  0  0  0  0  0  0  0  0  0  0  0
  -38.1145    3.8567  -43.8316 O   0  0  0  0  0  0  0  0  0  0  0  0
  -35.9920    3.6785  -44.4036 N   0  0  0  0  0  0  0  0  0  0  0  0
  -34.7018    4.0133  -44.2531 C   0  0  0  0  0  0  0  0  0  0  0  0
  -33.8704    3.5189  -44.9837 O   0  0  0  0  0  0  0  0  0  0  0  0
  -33.4513    6.6742  -45.0351 X   0  0  0  0  0  0  0  0  0  0  0  0
  1  2  1  0  0  0  0
  1 10  1  0  0  0  0
  2  3  1  0  0  0  0
  2  8  1  0  0  0  0
  3  4  1  0  0  0  0
  4  5  1  0  0  0  0
  5  6  2  0  0  0  0
  5  7  1  0  0  0  0
  7  8  1  0  0  0  0
  8  9  2  0  0  0  0
M  END
> <Index>
7073

> <PropertyFieldDistance>
nan

$$$$
12110418
BBcorina  12272117083D 1   1.00000     0.00000 
CORINA 4.3.0 0026  30.10.2019
 11 12  0  0  0  0  0  0  0  0999 V2000
  -35.9637    3.4669  -44.1591 N   0  0  0  0  0  0  0  0  0  0  0  0
  -36.9736    4.4886  -43.8404 C   0  0  0  0  0  0  0  0  0  0  0  0
  -36.6945    5.0268  -42.4368 C   0  0  0  0  0  0  0  0  0  0  0  0
  -35.2455    5.4235  -42.3177 C   0  0  0  0  0  0  0  0  0  0  0  0
  -34.8861    6.2117  -41.3143 N   0  0  0  0  0  0  0  0  0  0  0  0
  -33.6263    6.5783  -41.1723 C   0  0  0  0  0  0  0  0  0  0  0  0
  -32.6755    6.1377  -42.0755 C   0  0  0  0  0  0  0  0  0  0  0  0
  -33.0326    5.3548  -43.0760 N   0  0  0  0  0  0  0  0  0  0  0  0
  -34.2983    4.9863  -43.2209 C   0  0  0  0  0  0  0  0  0  0  0  0
  -34.6572    4.0950  -44.3805 C   0  0  0  0  0  0  0  0  0  0  0  0
  -36.4363    2.5406  -45.5166 X   0  0  0  0  0  0  0  0  0  0  0  0
  1  2  1  0  0  0  0
  1 10  1  0  0  0  0
  1 11  1  0  0  0  0
  2  3  1  0  0  0  0
  3  4  1  0  0  0  0
  4  5  2  0  0  0  0
  4  9  1  0  0  0  0
  5  6  1  0  0  0  0
  6  7  2  0  0  0  0
  7  8  1  0  0  0  0
  8  9  2  0  0  0  0
  9 10  1  0  0  0  0
M  END
> <Index>
7078

> <PropertyFieldDistance>
nan

$$$$
7101908
BBcorina  12272117083D 1   1.00000     0.00000 
CORINA 4.3.0 0026  30.10.2019
  9  9  0  0  0  0  0  0  0  0999 V2000
  -34.9460    6.5579  -41.3957 C   0  0  0  0  0  0  0  0  0  0  0  0
  -35.3532    5.8831  -42.7070 C   0  0  0  0  0  0  0  0  0  0  0  0
  -35.5405    6.8753  -43.7181 O   0  0  0  0  0  0  0  0  0  0  0  0
  -36.6587    5.1099  -42.5007 C   0  0  0  0  0  0  0  0  0  0  0  0
  -37.0290    4.3869  -43.7977 C   0  0  0  0  0  0  0  0  0  0  0  0
  -35.9480    3.4664  -44.1723 N   0  0  0  0  0  0  0  0  0  0  0  0
  -34.6958    4.1917  -44.4226 C   0  0  0  0  0  0  0  0  0  0  0  0
  -34.2558    4.9088  -43.1443 C   0  0  0  0  0  0  0  0  0  0  0  0
  -36.3899    2.5211  -45.5270 X   0  0  0  0  0  0  0  0  0  0  0  0
  1  2  1  0  0  0  0
  2  3  1  0  0  0  0
  2  4  1  0  0  0  0
  2  8  1  0  0  0  0
  4  5  1  0  0  0  0
  5  6  1  0  0  0  0
  6  7  1  0  0  0  0
  6  9  1  0  0  0  0
  7  8  1  0  0  0  0
M  END
> <Index>
7079

> <PropertyFieldDistance>
nan

$$$$
9140784
BBcorina  12272117083D 1   1.00000     0.00000 
CORINA 4.3.0 0026  30.10.2019
 10 10  0  0  0  0  0  0  0  0999 V2000
  -37.7755    6.0849  -42.1226 C   0  0  0  0  0  0  0  0  0  0  0  0
  -36.6587    5.1099  -42.5007 C   0  0  0  0  0  0  0  0  0  0  0  0
  -36.4728    4.0852  -41.3798 C   0  0  0  0  0  0  0  0  0  0  0  0
  -37.0290    4.3869  -43.7977 C   0  0  0  0  0  0  0  0  0  0  0  0
  -35.9479    3.4664  -44.1723 N   0  0  0  0  0  0  0  0  0  0  0  0
  -34.6959    4.1916  -44.4227 C   0  0  0  0  0  0  0  0  0  0  0  0
  -34.2558    4.9088  -43.1443 C   0  0  0  0  0  0  0  0  0  0  0  0
  -35.3534    5.8832  -42.7080 C   0  0  0  0  0  0  0  0  0  0  0  0
  -34.9726    6.5143  -41.4837 O   0  0  0  0  0  0  0  0  0  0  0  0
  -36.3899    2.5210  -45.5269 X   0  0  0  0  0  0  0  0  0  0  0  0
  1  2  1  0  0  0  0
  2  3  1  0  0  0  0
  2  4  1  0  0  0  0
  2  8  1  0  0  0  0
  4  5  1  0  0  0  0
  5  6  1  0  0  0  0
  5 10  1  0  0  0  0
  6  7  1  0  0  0  0
  7  8  1  0  0  0  0
  8  9  1  0  0  0  0
M  END
> <Index>
7080

> <PropertyFieldDistance>
nan

$$$$
12206076
BBcorina  12272117083D 1   1.00000     0.00000 
CORINA 4.3.0 0026  30.10.2019
 10 11  0  0  0  0  0  0  0  0999 V2000
  -35.9515    3.4796  -44.1388 N   0  0  0  0  0  0  0  0  0  0  0  0
  -36.9603    4.5011  -43.8241 C   0  0  0  0  0  0  0  0  0  0  0  0
  -36.6954    5.0773  -42.4274 C   0  0  0  0  0  0  0  0  0  0  0  0
  -35.2811    5.4560  -42.3480 N   0  0  0  0  0  0  0  0  0  0  0  0
  -34.6579    6.2886  -41.4199 N   0  0  0  0  0  0  0  0  0  0  0  0
  -33.3843    6.3555  -41.7240 C   0  0  0  0  0  0  0  0  0  0  0  0
  -33.1611    5.5627  -42.8576 C   0  0  0  0  0  0  0  0  0  0  0  0
  -34.3386    5.0214  -43.2193 C   0  0  0  0  0  0  0  0  0  0  0  0
  -34.6307    4.0910  -44.3699 C   0  0  0  0  0  0  0  0  0  0  0  0
  -35.8720    2.2967  -42.9065 X   0  0  0  0  0  0  0  0  0  0  0  0
  1  2  1  0  0  0  0
  1  9  1  0  0  0  0
  1 10  1  0  0  0  0
  2  3  1  0  0  0  0
  3  4  1  0  0  0  0
  4  5  1  0  0  0  0
  4  8  1  0  0  0  0
  5  6  2  0  0  0  0
  6  7  1  0  0  0  0
  7  8  2  0  0  0  0
  8  9  1  0  0  0  0
M  END
> <Index>
7081

> <PropertyFieldDistance>
nan

$$$$
6492660
BBcorina  12272117083D 1   1.00000     0.00000 
CORINA 4.3.0 0026  30.10.2019
 11 12  0  0  0  0  0  0  0  0999 V2000
  -36.9724    7.4421  -39.7930 C   0  0  0  0  0  0  0  0  0  0  0  0
  -36.5193    6.5585  -40.9266 C   0  0  0  0  0  0  0  0  0  0  0  0
  -37.2993    5.7245  -41.6190 N   0  0  0  0  0  0  0  0  0  0  0  0
  -36.5936    5.1148  -42.5263 C   0  0  0  0  0  0  0  0  0  0  0  0
  -37.0434    4.0917  -43.5403 C   0  0  0  0  0  0  0  0  0  0  0  0
  -35.9996    3.9833  -44.5748 N   0  0  0  0  0  0  0  0  0  0  0  0
  -34.6722    3.7932  -43.9728 C   0  0  0  0  0  0  0  0  0  0  0  0
  -34.2274    5.0903  -43.2840 C   0  0  0  0  0  0  0  0  0  0  0  0
  -35.3215    5.5531  -42.4294 N   0  0  0  0  0  0  0  0  0  0  0  0
  -35.2963    6.4853  -41.3922 N   0  0  0  0  0  0  0  0  0  0  0  0
  -36.3580    2.7267  -45.6777 X   0  0  0  0  0  0  0  0  0  0  0  0
  1  2  1  0  0  0  0
  2  3  1  0  0  0  0
  2 10  2  0  0  0  0
  3  4  2  0  0  0  0
  4  5  1  0  0  0  0
  4  9  1  0  0  0  0
  5  6  1  0  0  0  0
  6  7  1  0  0  0  0
  6 11  1  0  0  0  0
  7  8  1  0  0  0  0
  8  9  1  0  0  0  0
  9 10  1  0  0  0  0
M  END
> <Index>
7082

> <PropertyFieldDistance>
nan

$$$$
14725562
BBcorina  12272117083D 1   1.00000     0.00000 
CORINA 4.3.0 0026  30.10.2019
  9  9  0  0  0  0  0  0  0  0999 V2000
  -37.3190    6.5207  -40.6937 O   0  0  0  0  0  0  0  0  0  0  0  0
  -37.5651    5.3158  -41.4217 C   0  0  0  0  0  0  0  0  0  0  0  0
  -36.6293    5.2502  -42.6303 C   0  0  0  0  0  0  0  0  0  0  0  0
  -36.9724    4.0211  -43.4763 C   0  0  0  0  0  0  0  0  0  0  0  0
  -36.0215    3.9204  -44.5930 N   0  0  0  0  0  0  0  0  0  0  0  0
  -34.6419    3.8204  -44.0951 C   0  0  0  0  0  0  0  0  0  0  0  0
  -34.3222    5.0514  -43.2430 C   0  0  0  0  0  0  0  0  0  0  0  0
  -35.2752    5.1507  -42.1812 O   0  0  0  0  0  0  0  0  0  0  0  0
  -36.4046    2.5974  -45.6065 X   0  0  0  0  0  0  0  0  0  0  0  0
  1  2  1  0  0  0  0
  2  3  1  0  0  0  0
  3  4  1  0  0  0  0
  3  8  1  0  0  0  0
  4  5  1  0  0  0  0
  5  6  1  0  0  0  0
  5  9  1  0  0  0  0
  6  7  1  0  0  0  0
  7  8  1  0  0  0  0
M  END
> <Index>
7095

> <PropertyFieldDistance>
nan

$$$$
10565418
BBcorina  12272117083D 1   1.00000     0.00000 
CORINA 4.3.0 0026  30.10.2019
  9  9  0  0  0  0  0  0  0  0999 V2000
  -33.7723    6.1609  -41.3727 O   0  0  0  0  0  0  0  0  0  0  0  0
  -34.6481    5.3494  -42.1577 C   0  0  0  0  0  0  0  0  0  0  0  0
  -35.8995    6.1212  -42.4773 C   0  0  0  0  0  0  0  0  0  0  0  0
  -37.1497    5.2254  -42.5909 C   0  0  0  0  0  0  0  0  0  0  0  0
  -36.8627    3.9131  -43.3455 C   0  0  0  0  0  0  0  0  0  0  0  0
  -36.0144    4.1261  -44.4928 N   0  0  0  0  0  0  0  0  0  0  0  0
  -34.6116    3.8364  -44.1284 C   0  0  0  0  0  0  0  0  0  0  0  0
  -33.9488    4.9626  -43.4801 C   0  0  0  0  0  0  0  0  0  0  0  0
  -36.5161    3.1624  -45.8133 X   0  0  0  0  0  0  0  0  0  0  0  0
  1  2  1  0  0  0  0
  2  3  1  0  0  0  0
  2  8  1  0  0  0  0
  3  4  1  0  0  0  0
  4  5  1  0  0  0  0
  5  6  1  0  0  0  0
  6  7  1  0  0  0  0
  6  9  1  0  0  0  0
  7  8  1  0  0  0  0
M  END
> <Index>
7098

> <PropertyFieldDistance>
nan

$$$$
16483686
BBcorina  12272117083D 1   1.00000     0.00000 
CORINA 4.3.0 0026  30.10.2019
 11 12  0  0  0  0  0  0  0  0999 V2000
  -32.5799    5.7845  -42.3088 N   0  0  0  0  0  0  0  0  0  0  0  0
  -33.4106    4.5819  -42.0738 C   0  0  0  0  0  0  0  0  0  0  0  0
  -34.2599    5.0633  -43.2582 C   0  0  0  0  0  0  0  0  0  0  0  0
  -33.0173    5.8337  -43.7248 C   0  0  0  0  0  0  0  0  0  0  0  0
  -35.4207    5.9685  -42.8475 C   0  0  0  0  0  0  0  0  0  0  0  0
  -36.6144    5.0749  -42.4840 C   0  0  0  0  0  0  0  0  0  0  0  0
  -37.0737    4.3275  -43.7350 C   0  0  0  0  0  0  0  0  0  0  0  0
  -35.9615    3.6337  -44.3706 N   0  0  0  0  0  0  0  0  0  0  0  0
  -34.6778    3.9641  -44.1899 C   0  0  0  0  0  0  0  0  0  0  0  0
  -33.8240    3.3551  -44.7989 O   0  0  0  0  0  0  0  0  0  0  0  0
  -30.9151    5.4119  -42.1921 X   0  0  0  0  0  0  0  0  0  0  0  0
  1  2  1  0  0  0  0
  1  4  1  0  0  0  0
  1 11  1  0  0  0  0
  2  3  1  0  0  0  0
  3  4  1  0  0  0  0
  3  5  1  0  0  0  0
  3  9  1  0  0  0  0
  5  6  1  0  0  0  0
  6  7  1  0  0  0  0
  7  8  1  0  0  0  0
  8  9  1  0  0  0  0
  9 10  2  0  0  0  0
M  END
> <Index>
7099

> <PropertyFieldDistance>
nan

$$$$
18056946
BBcorina  12272117083D 1   1.00000     0.00000 
CORINA 4.3.0 0026  30.10.2019
 13 14  0  0  0  0  0  0  0  0999 V2000
  -36.3356    2.3078  -44.8790 C   0  0  0  0  0  0  0  0  0  0  0  0
  -35.9453    3.3415  -43.9109 N   0  0  0  0  0  0  0  0  0  0  0  0
  -37.0428    4.2900  -43.6827 C   0  0  0  0  0  0  0  0  0  0  0  0
  -36.6555    5.2624  -42.5663 C   0  0  0  0  0  0  0  0  0  0  0  0
  -35.3832    6.0134  -42.9692 C   0  0  0  0  0  0  0  0  0  0  0  0
  -34.2701    5.0009  -43.2496 C   0  0  0  0  0  0  0  0  0  0  0  0
  -33.0110    5.7400  -43.7082 C   0  0  0  0  0  0  0  0  0  0  0  0
  -32.5283    6.6607  -42.5848 C   0  0  0  0  0  0  0  0  0  0  0  0
  -32.2423    5.8629  -41.3855 N   0  0  0  0  0  0  0  0  0  0  0  0
  -33.4492    5.1823  -40.8993 C   0  0  0  0  0  0  0  0  0  0  0  0
  -33.9593    4.2174  -41.9721 C   0  0  0  0  0  0  0  0  0  0  0  0
  -34.7255    4.0351  -44.3446 C   0  0  0  0  0  0  0  0  0  0  0  0
  -31.5471    6.8293  -40.1580 X   0  0  0  0  0  0  0  0  0  0  0  0
  1  2  1  0  0  0  0
  2  3  1  0  0  0  0
  2 12  1  0  0  0  0
  3  4  1  0  0  0  0
  4  5  1  0  0  0  0
  5  6  1  0  0  0  0
  6  7  1  0  0  0  0
  6 11  1  0  0  0  0
  6 12  1  0  0  0  0
  7  8  1  0  0  0  0
  8  9  1  0  0  0  0
  9 10  1  0  0  0  0
  9 13  1  0  0  0  0
 10 11  1  0  0  0  0
M  END
> <Index>
7100

> <PropertyFieldDistance>
nan

$$$$
10388270
BBcorina  12272117083D 1   1.00000     0.00000 
CORINA 4.3.0 0026  30.10.2019
  8  8  0  0  0  0  0  0  0  0999 V2000
  -36.8481    3.9815  -42.6929 N   0  0  0  0  0  0  0  0  0  0  0  0
  -36.2040    3.4741  -43.9118 C   0  0  0  0  0  0  0  0  0  0  0  0
  -36.1831    1.9316  -43.9203 C   0  0  0  0  0  0  0  0  0  0  0  0
  -34.8369    1.5359  -44.3003 O   0  0  0  0  0  0  0  0  0  0  0  0
  -34.0687    2.6011  -44.5663 C   0  0  0  0  0  0  0  0  0  0  0  0
  -33.0459    2.5898  -45.2096 O   0  0  0  0  0  0  0  0  0  0  0  0
  -34.6968    3.8232  -43.9243 C   0  0  0  0  0  0  0  0  0  0  0  0
  -36.0374    3.4243  -41.2941 X   0  0  0  0  0  0  0  0  0  0  0  0
  1  2  1  0  0  0  0
  1  8  1  0  0  0  0
  2  3  1  0  0  0  0
  2  7  1  0  0  0  0
  3  4  1  0  0  0  0
  4  5  1  0  0  0  0
  5  6  2  0  0  0  0
  5  7  1  0  0  0  0
M  END
> <Index>
7108

> <PropertyFieldDistance>
nan

$$$$
10545444
BBcorina  12272117083D 1   1.00000     0.00000 
CORINA 4.3.0 0026  30.10.2019
 12 13  0  0  0  0  0  0  0  0999 V2000
  -36.3504    2.3552  -44.9434 C   0  0  0  0  0  0  0  0  0  0  0  0
  -36.0380    3.6631  -44.3520 N   0  0  0  0  0  0  0  0  0  0  0  0
  -36.9453    3.9674  -43.2383 C   0  0  0  0  0  0  0  0  0  0  0  0
  -36.6953    5.3951  -42.7470 C   0  0  0  0  0  0  0  0  0  0  0  0
  -35.2412    5.5216  -42.2810 C   0  0  0  0  0  0  0  0  0  0  0  0
  -34.3122    5.1314  -43.4283 C   0  0  0  0  0  0  0  0  0  0  0  0
  -32.8451    5.2132  -42.9740 C   0  0  0  0  0  0  0  0  0  0  0  0
  -32.2020    6.2725  -43.8967 C   0  0  0  0  0  0  0  0  0  0  0  0
  -33.3397    7.1124  -44.3530 N   0  0  0  0  0  0  0  0  0  0  0  0
  -34.4432    6.1428  -44.5814 C   0  0  0  0  0  0  0  0  0  0  0  0
  -34.6335    3.7255  -43.9240 C   0  0  0  0  0  0  0  0  0  0  0  0
  -32.9473    7.9450  -45.7942 X   0  0  0  0  0  0  0  0  0  0  0  0
  1  2  1  0  0  0  0
  2  3  1  0  0  0  0
  2 11  1  0  0  0  0
  3  4  1  0  0  0  0
  4  5  1  0  0  0  0
  5  6  1  0  0  0  0
  6  7  1  0  0  0  0
  6 10  1  0  0  0  0
  6 11  1  0  0  0  0
  7  8  1  0  0  0  0
  8  9  1  0  0  0  0
  9 10  1  0  0  0  0
  9 12  1  0  0  0  0
M  END
> <Index>
7110

> <PropertyFieldDistance>
nan

$$$$
8158870
BBcorina  12272117083D 1   1.00000     0.00000 
CORINA 4.3.0 0026  30.10.2019
  8  8  0  0  0  0  0  0  0  0999 V2000
  -37.1635    4.8798  -41.2254 C   0  0  0  0  0  0  0  0  0  0  0  0
  -36.4283    5.0343  -42.5583 C   0  0  0  0  0  0  0  0  0  0  0  0
  -37.0847    4.1543  -43.6516 C   0  0  0  0  0  0  0  0  0  0  0  0
  -35.9827    3.9339  -44.6227 N   0  0  0  0  0  0  0  0  0  0  0  0
  -34.7619    3.7407  -43.8104 C   0  0  0  0  0  0  0  0  0  0  0  0
  -34.9948    4.4578  -42.4676 C   0  0  0  0  0  0  0  0  0  0  0  0
  -34.9057    3.5275  -41.3865 O   0  0  0  0  0  0  0  0  0  0  0  0
  -36.2915    2.5648  -45.5998 X   0  0  0  0  0  0  0  0  0  0  0  0
  1  2  1  0  0  0  0
  2  3  1  0  0  0  0
  2  6  1  0  0  0  0
  3  4  1  0  0  0  0
  4  5  1  0  0  0  0
  4  8  1  0  0  0  0
  5  6  1  0  0  0  0
  6  7  1  0  0  0  0
M  END
> <Index>
7115

> <PropertyFieldDistance>
nan

$$$$
11968230
BBcorina  12272117083D 1   1.00000     0.00000 
CORINA 4.3.0 0026  30.10.2019
 10 11  0  0  0  0  0  0  0  0999 V2000
  -36.4445    0.8992  -46.2910 N   0  0  0  0  0  0  0  0  0  0  0  0
  -35.3111    1.7330  -45.8332 C   0  0  0  0  0  0  0  0  0  0  0  0
  -36.3744    2.6503  -45.2029 C   0  0  0  0  0  0  0  0  0  0  0  0
  -37.2927    1.4149  -45.1939 C   0  0  0  0  0  0  0  0  0  0  0  0
  -36.0192    3.1327  -43.8616 N   0  0  0  0  0  0  0  0  0  0  0  0
  -37.0764    4.0035  -43.3160 C   0  0  0  0  0  0  0  0  0  0  0  0
  -36.4236    5.3578  -42.9674 C   0  0  0  0  0  0  0  0  0  0  0  0
  -34.9225    4.9887  -42.8090 C   0  0  0  0  0  0  0  0  0  0  0  0
  -34.7514    3.8928  -43.8905 C   0  0  0  0  0  0  0  0  0  0  0  0
  -36.1081   -0.7636  -46.0759 X   0  0  0  0  0  0  0  0  0  0  0  0
  1  2  1  0  0  0  0
  1  4  1  0  0  0  0
  1 10  1  0  0  0  0
  2  3  1  0  0  0  0
  3  4  1  0  0  0  0
  3  5  1  0  0  0  0
  5  6  1  0  0  0  0
  5  9  1  0  0  0  0
  6  7  1  0  0  0  0
  7  8  1  0  0  0  0
  8  9  1  0  0  0  0
M  END
> <Index>
7122

> <PropertyFieldDistance>
nan

$$$$
15755760
BBcorina  12272117083D 1   1.00000     0.00000 
CORINA 4.3.0 0026  30.10.2019
  9  9  0  0  0  0  0  0  0  0999 V2000
  -33.8635    2.3087  -45.3358 O   0  0  0  0  0  0  0  0  0  0  0  0
  -34.5324    2.7696  -44.1600 C   0  0  0  0  0  0  0  0  0  0  0  0
  -34.5532    4.2994  -44.1516 C   0  0  0  0  0  0  0  0  0  0  0  0
  -35.2693    4.7928  -42.8928 C   0  0  0  0  0  0  0  0  0  0  0  0
  -36.7047    4.2633  -42.8820 C   0  0  0  0  0  0  0  0  0  0  0  0
  -36.6839    2.7334  -42.8904 C   0  0  0  0  0  0  0  0  0  0  0  0
  -35.9678    2.2400  -44.1492 C   0  0  0  0  0  0  0  0  0  0  0  0
  -35.9479    0.7712  -44.1573 N   0  0  0  0  0  0  0  0  0  0  0  0
  -35.8447    0.1685  -45.7542 X   0  0  0  0  0  0  0  0  0  0  0  0
  1  2  1  0  0  0  0
  2  3  1  0  0  0  0
  2  7  1  0  0  0  0
  3  4  1  0  0  0  0
  4  5  1  0  0  0  0
  5  6  1  0  0  0  0
  6  7  1  0  0  0  0
  7  8  1  0  0  0  0
  8  9  1  0  0  0  0
M  END
> <Index>
7123

> <PropertyFieldDistance>
nan

$$$$
8627930
BBcorina  12272117083D 1   1.00000     0.00000 
CORINA 4.3.0 0026  30.10.2019
 10 10  0  0  0  0  0  0  0  0999 V2000
  -35.9480    3.4664  -44.1723 N   0  0  0  0  0  0  0  0  0  0  0  0
  -37.0291    4.3869  -43.7977 C   0  0  0  0  0  0  0  0  0  0  0  0
  -36.6585    5.1099  -42.5008 C   0  0  0  0  0  0  0  0  0  0  0  0
  -35.3535    5.8833  -42.7079 C   0  0  0  0  0  0  0  0  0  0  0  0
  -34.9460    6.5589  -41.3971 C   0  0  0  0  0  0  0  0  0  0  0  0
  -35.9435    7.5811  -41.0411 C   0  0  0  0  0  0  0  0  0  0  0  0
  -36.7134    8.3700  -40.7663 N   0  0  0  0  0  0  0  0  0  0  0  0
  -34.2559    4.9088  -43.1442 C   0  0  0  0  0  0  0  0  0  0  0  0
  -34.6958    4.1916  -44.4226 C   0  0  0  0  0  0  0  0  0  0  0  0
  -36.3899    2.5211  -45.5270 X   0  0  0  0  0  0  0  0  0  0  0  0
  1  2  1  0  0  0  0
  1  9  1  0  0  0  0
  1 10  1  0  0  0  0
  2  3  1  0  0  0  0
  3  4  1  0  0  0  0
  4  5  1  0  0  0  0
  4  8  1  0  0  0  0
  5  6  1  0  0  0  0
  6  7  3  0  0  0  0
  8  9  1  0  0  0  0
M  END
> <Index>
7125

> <PropertyFieldDistance>
nan

$$$$
16767576
BBcorina  12272117083D 1   1.00000     0.00000 
CORINA 4.3.0 0026  30.10.2019
 13 14  0  0  0  0  0  0  0  0999 V2000
  -36.3071    2.3385  -44.9693 C   0  0  0  0  0  0  0  0  0  0  0  0
  -36.1430    3.3939  -43.9664 N   0  0  0  0  0  0  0  0  0  0  0  0
  -35.0035    3.5970  -43.1812 N   0  0  0  0  0  0  0  0  0  0  0  0
  -35.1793    4.6191  -42.3935 C   0  0  0  0  0  0  0  0  0  0  0  0
  -36.5173    5.1470  -42.6401 C   0  0  0  0  0  0  0  0  0  0  0  0
  -37.2572    6.2086  -42.1081 C   0  0  0  0  0  0  0  0  0  0  0  0
  -36.6626    7.0837  -41.0349 C   0  0  0  0  0  0  0  0  0  0  0  0
  -35.7629    8.0691  -41.6493 N   0  0  0  0  0  0  0  0  0  0  0  0
  -38.5204    6.4476  -42.5668 C   0  0  0  0  0  0  0  0  0  0  0  0
  -39.0774    5.6469  -43.5561 C   0  0  0  0  0  0  0  0  0  0  0  0
  -38.3747    4.6043  -44.0908 C   0  0  0  0  0  0  0  0  0  0  0  0
  -37.0837    4.3365  -43.6431 C   0  0  0  0  0  0  0  0  0  0  0  0
  -35.0653    9.0848  -40.4637 X   0  0  0  0  0  0  0  0  0  0  0  0
  1  2  1  0  0  0  0
  2  3  1  0  0  0  0
  2 12  1  0  0  0  0
  3  4  2  0  0  0  0
  4  5  1  0  0  0  0
  5  6  2  0  0  0  0
  5 12  1  0  0  0  0
  6  7  1  0  0  0  0
  6  9  1  0  0  0  0
  7  8  1  0  0  0  0
  8 13  1  0  0  0  0
  9 10  2  0  0  0  0
 10 11  1  0  0  0  0
 11 12  2  0  0  0  0
M  END
> <Index>
7130

> <PropertyFieldDistance>
nan

$$$$
6200776
BBcorina  12272117083D 1   1.00000     0.00000 
CORINA 4.3.0 0026  30.10.2019
 10 10  0  0  0  0  0  0  0  0999 V2000
  -31.8652    4.7104  -43.8456 C   0  0  0  0  0  0  0  0  0  0  0  0
  -32.9625    5.6838  -43.4103 C   0  0  0  0  0  0  0  0  0  0  0  0
  -34.2549    4.9095  -43.1439 C   0  0  0  0  0  0  0  0  0  0  0  0
  -34.0160    3.8805  -42.0372 C   0  0  0  0  0  0  0  0  0  0  0  0
  -35.3535    5.8831  -42.7083 C   0  0  0  0  0  0  0  0  0  0  0  0
  -36.6588    5.1098  -42.5008 C   0  0  0  0  0  0  0  0  0  0  0  0
  -37.0292    4.3868  -43.7978 C   0  0  0  0  0  0  0  0  0  0  0  0
  -35.9482    3.4661  -44.1723 N   0  0  0  0  0  0  0  0  0  0  0  0
  -34.6961    4.1914  -44.4229 C   0  0  0  0  0  0  0  0  0  0  0  0
  -36.3903    2.5207  -45.5269 X   0  0  0  0  0  0  0  0  0  0  0  0
  1  2  1  0  0  0  0
  2  3  1  0  0  0  0
  3  4  1  0  0  0  0
  3  5  1  0  0  0  0
  3  9  1  0  0  0  0
  5  6  1  0  0  0  0
  6  7  1  0  0  0  0
  7  8  1  0  0  0  0
  8  9  1  0  0  0  0
  8 10  1  0  0  0  0
M  END
> <Index>
7138

> <PropertyFieldDistance>
nan

$$$$
16511718
BBcorina  12272117083D 1   1.00000     0.00000 
CORINA 4.3.0 0026  30.10.2019
 12 12  0  0  0  0  0  0  0  0999 V2000
  -33.6407    7.3299  -41.6052 C   0  0  0  0  0  0  0  0  0  0  0  0
  -34.9467    6.5602  -41.3976 C   0  0  0  0  0  0  0  0  0  0  0  0
  -36.0466    7.5302  -40.9618 C   0  0  0  0  0  0  0  0  0  0  0  0
  -34.7534    5.5377  -40.3565 C   0  0  0  0  0  0  0  0  0  0  0  0
  -34.6042    4.7486  -39.5529 N   0  0  0  0  0  0  0  0  0  0  0  0
  -35.3535    5.8832  -42.7080 C   0  0  0  0  0  0  0  0  0  0  0  0
  -36.6587    5.1099  -42.5007 C   0  0  0  0  0  0  0  0  0  0  0  0
  -37.0290    4.3869  -43.7977 C   0  0  0  0  0  0  0  0  0  0  0  0
  -35.9480    3.4664  -44.1723 N   0  0  0  0  0  0  0  0  0  0  0  0
  -34.6958    4.1916  -44.4226 C   0  0  0  0  0  0  0  0  0  0  0  0
  -34.2558    4.9088  -43.1443 C   0  0  0  0  0  0  0  0  0  0  0  0
  -36.3899    2.5209  -45.5269 X   0  0  0  0  0  0  0  0  0  0  0  0
  1  2  1  0  0  0  0
  2  3  1  0  0  0  0
  2  4  1  0  0  0  0
  2  6  1  0  0  0  0
  4  5  3  0  0  0  0
  6  7  1  0  0  0  0
  6 11  1  0  0  0  0
  7  8  1  0  0  0  0
  8  9  1  0  0  0  0
  9 10  1  0  0  0  0
  9 12  1  0  0  0  0
 10 11  1  0  0  0  0
M  END
> <Index>
7143

> <PropertyFieldDistance>
nan

$$$$
7288926
BBcorina  12272117083D 1   1.00000     0.00000 
CORINA 4.3.0 0026  30.10.2019
 10 10  0  0  0  0  0  0  0  0999 V2000
  -35.9495    7.4488  -40.9995 F   0  0  0  0  0  0  0  0  0  0  0  0
  -34.9460    6.5589  -41.3971 C   0  0  0  0  0  0  0  0  0  0  0  0
  -34.7661    5.5865  -40.4076 F   0  0  0  0  0  0  0  0  0  0  0  0
  -35.3535    5.8833  -42.7079 C   0  0  0  0  0  0  0  0  0  0  0  0
  -36.6585    5.1099  -42.5008 C   0  0  0  0  0  0  0  0  0  0  0  0
  -37.0291    4.3869  -43.7977 C   0  0  0  0  0  0  0  0  0  0  0  0
  -35.9480    3.4664  -44.1723 N   0  0  0  0  0  0  0  0  0  0  0  0
  -34.6958    4.1916  -44.4226 C   0  0  0  0  0  0  0  0  0  0  0  0
  -34.2559    4.9088  -43.1442 C   0  0  0  0  0  0  0  0  0  0  0  0
  -36.3899    2.5211  -45.5270 X   0  0  0  0  0  0  0  0  0  0  0  0
  1  2  1  0  0  0  0
  2  3  1  0  0  0  0
  2  4  1  0  0  0  0
  4  5  1  0  0  0  0
  4  9  1  0  0  0  0
  5  6  1  0  0  0  0
  6  7  1  0  0  0  0
  7  8  1  0  0  0  0
  7 10  1  0  0  0  0
  8  9  1  0  0  0  0
M  END
> <Index>
7159

> <PropertyFieldDistance>
nan

$$$$
5448700
BBcorina  12272117083D 1   1.00000     0.00000 
CORINA 4.3.0 0026  30.10.2019
  7  7  0  0  0  0  0  0  0  0999 V2000
  -37.3532    5.7724  -44.7316 C   0  0  0  0  0  0  0  0  0  0  0  0
  -37.1758    4.5245  -43.8641 C   0  0  0  0  0  0  0  0  0  0  0  0
  -38.4640    3.7102  -43.7289 C   0  0  0  0  0  0  0  0  0  0  0  0
  -36.4847    4.8057  -42.5225 C   0  0  0  0  0  0  0  0  0  0  0  0
  -35.2020    4.5506  -43.3263 C   0  0  0  0  0  0  0  0  0  0  0  0
  -36.0032    3.7116  -44.2370 N   0  0  0  0  0  0  0  0  0  0  0  0
  -35.5627    3.9828  -45.8669 X   0  0  0  0  0  0  0  0  0  0  0  0
  1  2  1  0  0  0  0
  2  3  1  0  0  0  0
  2  4  1  0  0  0  0
  2  6  1  0  0  0  0
  4  5  1  0  0  0  0
  5  6  1  0  0  0  0
  6  7  1  0  0  0  0
M  END
> <Index>
7160

> <PropertyFieldDistance>
nan

$$$$
4971480
BBcorina  12272117083D 1   1.00000     0.00000 
CORINA 4.3.0 0026  30.10.2019
 13 14  0  0  0  0  0  0  0  0999 V2000
  -35.5017    5.7054  -42.5581 N   0  0  0  0  0  0  0  0  0  0  0  0
  -36.6830    4.8340  -42.4880 C   0  0  0  0  0  0  0  0  0  0  0  0
  -36.8873    4.1466  -43.8402 C   0  0  0  0  0  0  0  0  0  0  0  0
  -35.6851    3.3729  -44.1801 N   0  0  0  0  0  0  0  0  0  0  0  0
  -35.8711    2.6363  -45.4374 C   0  0  0  0  0  0  0  0  0  0  0  0
  -36.9242    1.5754  -45.2469 C   0  0  0  0  0  0  0  0  0  0  0  0
  -37.3930    1.3796  -44.1514 O   0  0  0  0  0  0  0  0  0  0  0  0
  -37.3924    0.7586  -46.4237 C   0  0  0  0  0  0  0  0  0  0  0  0
  -37.9763   -0.6260  -46.1352 C   0  0  0  0  0  0  0  0  0  0  0  0
  -38.8971    0.5193  -46.5637 C   0  0  0  0  0  0  0  0  0  0  0  0
  -34.5038    4.2443  -44.2501 C   0  0  0  0  0  0  0  0  0  0  0  0
  -34.2995    4.9317  -42.8979 C   0  0  0  0  0  0  0  0  0  0  0  0
  -35.2852    6.5629  -41.0945 X   0  0  0  0  0  0  0  0  0  0  0  0
  1  2  1  0  0  0  0
  1 12  1  0  0  0  0
  1 13  1  0  0  0  0
  2  3  1  0  0  0  0
  3  4  1  0  0  0  0
  4  5  1  0  0  0  0
  4 11  1  0  0  0  0
  5  6  1  0  0  0  0
  6  7  2  0  0  0  0
  6  8  1  0  0  0  0
  8  9  1  0  0  0  0
  8 10  1  0  0  0  0
  9 10  1  0  0  0  0
 11 12  1  0  0  0  0
M  END
> <Index>
7170

> <PropertyFieldDistance>
nan

$$$$
5506042
BBcorina  12272117083D 1   1.00000     0.00000 
CORINA 4.3.0 0026  30.10.2019
  9  9  0  0  0  0  0  0  0  0999 V2000
  -36.3320    2.3768  -45.0202 C   0  0  0  0  0  0  0  0  0  0  0  0
  -35.9918    3.5098  -44.1562 N   0  0  0  0  0  0  0  0  0  0  0  0
  -37.0749    4.2373  -43.5009 C   0  0  0  0  0  0  0  0  0  0  0  0
  -36.5247    5.0541  -42.3301 C   0  0  0  0  0  0  0  0  0  0  0  0
  -35.3733    5.8400  -42.8023 N   0  0  0  0  0  0  0  0  0  0  0  0
  -34.2453    4.9509  -43.1108 C   0  0  0  0  0  0  0  0  0  0  0  0
  -34.7030    3.8316  -44.0025 C   0  0  0  0  0  0  0  0  0  0  0  0
  -33.8685    3.1932  -44.6086 O   0  0  0  0  0  0  0  0  0  0  0  0
  -34.9246    7.0222  -41.6511 X   0  0  0  0  0  0  0  0  0  0  0  0
  1  2  1  0  0  0  0
  2  3  1  0  0  0  0
  2  7  1  0  0  0  0
  3  4  1  0  0  0  0
  4  5  1  0  0  0  0
  5  6  1  0  0  0  0
  5  9  1  0  0  0  0
  6  7  1  0  0  0  0
  7  8  2  0  0  0  0
M  END
> <Index>
7171

> <PropertyFieldDistance>
nan

$$$$
13612642
BBcorina  12272117083D 1   1.00000     0.00000 
CORINA 4.3.0 0026  30.10.2019
  9  9  0  0  0  0  0  0  0  0999 V2000
  -36.8999    5.1324  -42.4965 C   0  0  0  0  0  0  0  0  0  0  0  0
  -36.7567    3.6705  -42.4801 N   0  0  0  0  0  0  0  0  0  0  0  0
  -36.0722    3.1949  -43.6898 C   0  0  0  0  0  0  0  0  0  0  0  0
  -36.0514    1.6633  -43.6982 C   0  0  0  0  0  0  0  0  0  0  0  0
  -35.2683    1.1781  -44.9209 C   0  0  0  0  0  0  0  0  0  0  0  0
  -33.9473    1.7219  -44.8853 O   0  0  0  0  0  0  0  0  0  0  0  0
  -33.9029    3.1498  -44.9233 C   0  0  0  0  0  0  0  0  0  0  0  0
  -34.6312    3.7142  -43.7007 C   0  0  0  0  0  0  0  0  0  0  0  0
  -35.9411    3.1504  -41.0700 X   0  0  0  0  0  0  0  0  0  0  0  0
  1  2  1  0  0  0  0
  2  3  1  0  0  0  0
  2  9  1  0  0  0  0
  3  4  1  0  0  0  0
  3  8  1  0  0  0  0
  4  5  1  0  0  0  0
  5  6  1  0  0  0  0
  6  7  1  0  0  0  0
  7  8  1  0  0  0  0
M  END
> <Index>
7178

> <PropertyFieldDistance>
nan

$$$$
12892148
BBcorina  12272117083D 1   1.00000     0.00000 
CORINA 4.3.0 0026  30.10.2019
  9  9  0  0  0  0  0  0  0  0999 V2000
  -36.6974    4.8240  -45.8950 O   0  0  0  0  0  0  0  0  0  0  0  0
  -35.9349    4.3161  -44.7983 C   0  0  0  0  0  0  0  0  0  0  0  0
  -36.8514    4.1143  -43.5900 C   0  0  0  0  0  0  0  0  0  0  0  0
  -36.0350    3.5705  -42.4158 C   0  0  0  0  0  0  0  0  0  0  0  0
  -35.4063    2.2320  -42.8082 C   0  0  0  0  0  0  0  0  0  0  0  0
  -34.4898    2.4339  -44.0166 C   0  0  0  0  0  0  0  0  0  0  0  0
  -35.3062    2.9776  -45.1908 C   0  0  0  0  0  0  0  0  0  0  0  0
  -34.6224    1.7099  -41.6809 N   0  0  0  0  0  0  0  0  0  0  0  0
  -34.5992    0.0001  -41.6903 X   0  0  0  0  0  0  0  0  0  0  0  0
  1  2  1  0  0  0  0
  2  3  1  0  0  0  0
  2  7  1  0  0  0  0
  3  4  1  0  0  0  0
  4  5  1  0  0  0  0
  5  6  1  0  0  0  0
  5  8  1  0  0  0  0
  6  7  1  0  0  0  0
  8  9  1  0  0  0  0
M  END
> <Index>
7181

> <PropertyFieldDistance>
nan

$$$$
11621084
BBcorina  12272117083D 1   1.00000     0.00000 
CORINA 4.3.0 0026  30.10.2019
 12 12  0  0  0  0  0  0  0  0999 V2000
  -35.4561    0.1248  -45.4155 C   0  0  0  0  0  0  0  0  0  0  0  0
  -35.2555    1.3928  -44.7096 N   0  0  0  0  0  0  0  0  0  0  0  0
  -33.9558    1.6976  -44.1062 C   0  0  0  0  0  0  0  0  0  0  0  0
  -36.2667    2.2788  -44.6153 C   0  0  0  0  0  0  0  0  0  0  0  0
  -37.4045    1.9317  -44.8667 O   0  0  0  0  0  0  0  0  0  0  0  0
  -36.0167    3.5495  -44.2424 N   0  0  0  0  0  0  0  0  0  0  0  0
  -37.0874    4.4037  -43.7065 C   0  0  0  0  0  0  0  0  0  0  0  0
  -36.6072    5.0157  -42.3863 C   0  0  0  0  0  0  0  0  0  0  0  0
  -35.3220    5.6934  -42.6033 N   0  0  0  0  0  0  0  0  0  0  0  0
  -34.2808    4.7423  -43.0144 C   0  0  0  0  0  0  0  0  0  0  0  0
  -34.6644    4.1171  -44.3547 C   0  0  0  0  0  0  0  0  0  0  0  0
  -34.8436    6.5610  -41.2095 X   0  0  0  0  0  0  0  0  0  0  0  0
  1  2  1  0  0  0  0
  2  3  1  0  0  0  0
  2  4  1  0  0  0  0
  4  5  2  0  0  0  0
  4  6  1  0  0  0  0
  6  7  1  0  0  0  0
  6 11  1  0  0  0  0
  7  8  1  0  0  0  0
  8  9  1  0  0  0  0
  9 10  1  0  0  0  0
  9 12  1  0  0  0  0
 10 11  1  0  0  0  0
M  END
> <Index>
7187

> <PropertyFieldDistance>
nan

$$$$
13159590
BBcorina  12272117083D 1   1.00000     0.00000 
CORINA 4.3.0 0026  30.10.2019
 10 10  0  0  0  0  0  0  0  0999 V2000
  -31.9459    5.4552  -43.6498 C   0  0  0  0  0  0  0  0  0  0  0  0
  -32.9411    4.9185  -42.7760 O   0  0  0  0  0  0  0  0  0  0  0  0
  -34.2770    5.0495  -43.2665 C   0  0  0  0  0  0  0  0  0  0  0  0
  -35.2462    5.1675  -42.0869 C   0  0  0  0  0  0  0  0  0  0  0  0
  -36.6793    5.2476  -42.6202 C   0  0  0  0  0  0  0  0  0  0  0  0
  -36.9723    4.0087  -43.4695 C   0  0  0  0  0  0  0  0  0  0  0  0
  -36.0191    3.9414  -44.5845 N   0  0  0  0  0  0  0  0  0  0  0  0
  -34.6396    3.8164  -44.0970 C   0  0  0  0  0  0  0  0  0  0  0  0
  -36.3523    2.8536  -45.4900 N   0  0  0  0  0  0  0  0  0  0  0  0
  -37.7390    2.0106  -44.9510 X   0  0  0  0  0  0  0  0  0  0  0  0
  1  2  1  0  0  0  0
  2  3  1  0  0  0  0
  3  4  1  0  0  0  0
  3  8  1  0  0  0  0
  4  5  1  0  0  0  0
  5  6  1  0  0  0  0
  6  7  1  0  0  0  0
  7  8  1  0  0  0  0
  7  9  1  0  0  0  0
  9 10  1  0  0  0  0
M  END
> <Index>
7189

> <PropertyFieldDistance>
nan

$$$$
12107800
BBcorina  12272117083D 1   1.00000     0.00000 
CORINA 4.3.0 0026  30.10.2019
 11 11  0  0  0  0  0  0  0  0999 V2000
  -35.3990   -0.1705  -47.4639 C   0  0  0  0  0  0  0  0  0  0  0  0
  -36.3535    0.6323  -46.6879 N   0  0  0  0  0  0  0  0  0  0  0  0
  -35.6551    1.6199  -45.8542 C   0  0  0  0  0  0  0  0  0  0  0  0
  -36.6645    2.4229  -45.0747 C   0  0  0  0  0  0  0  0  0  0  0  0
  -37.8490    2.1948  -45.2011 O   0  0  0  0  0  0  0  0  0  0  0  0
  -36.2510    3.3943  -44.2370 N   0  0  0  0  0  0  0  0  0  0  0  0
  -37.1237    4.2497  -43.4196 C   0  0  0  0  0  0  0  0  0  0  0  0
  -36.2133    5.2257  -42.6450 C   0  0  0  0  0  0  0  0  0  0  0  0
  -34.9168    5.2422  -43.4972 C   0  0  0  0  0  0  0  0  0  0  0  0
  -34.8483    3.7709  -43.9838 C   0  0  0  0  0  0  0  0  0  0  0  0
  -37.3643   -0.3669  -45.7372 X   0  0  0  0  0  0  0  0  0  0  0  0
  1  2  1  0  0  0  0
  2  3  1  0  0  0  0
  2 11  1  0  0  0  0
  3  4  1  0  0  0  0
  4  5  2  0  0  0  0
  4  6  1  0  0  0  0
  6  7  1  0  0  0  0
  6 10  1  0  0  0  0
  7  8  1  0  0  0  0
  8  9  1  0  0  0  0
  9 10  1  0  0  0  0
M  END
> <Index>
7192

> <PropertyFieldDistance>
nan

$$$$
9360200
BBcorina  12272117083D 1   1.00000     0.00000 
CORINA 4.3.0 0026  30.10.2019
  9  9  0  0  0  0  0  0  0  0999 V2000
  -36.0173    3.5926  -44.4913 N   0  0  0  0  0  0  0  0  0  0  0  0
  -36.3933    2.1751  -44.5752 C   0  0  0  0  0  0  0  0  0  0  0  0
  -36.1059    1.6538  -45.9847 C   0  0  0  0  0  0  0  0  0  0  0  0
  -36.3871    0.1491  -46.0415 C   0  0  0  0  0  0  0  0  0  0  0  0
  -36.1711   -0.3460  -47.4748 C   0  0  0  0  0  0  0  0  0  0  0  0
  -37.0725    0.4497  -48.4225 C   0  0  0  0  0  0  0  0  0  0  0  0
  -36.7806    1.8430  -48.2977 O   0  0  0  0  0  0  0  0  0  0  0  0
  -37.0096    2.3722  -46.9901 C   0  0  0  0  0  0  0  0  0  0  0  0
  -36.3231    4.2163  -42.9287 X   0  0  0  0  0  0  0  0  0  0  0  0
  1  2  1  0  0  0  0
  1  9  1  0  0  0  0
  2  3  1  0  0  0  0
  3  4  1  0  0  0  0
  3  8  1  0  0  0  0
  4  5  1  0  0  0  0
  5  6  1  0  0  0  0
  6  7  1  0  0  0  0
  7  8  1  0  0  0  0
M  END
> <Index>
7197

> <PropertyFieldDistance>
nan

$$$$
7932570
BBcorina  12272117083D 1   1.00000     0.00000 
CORINA 4.3.0 0026  30.10.2019
 12 12  0  0  0  0  0  0  0  0999 V2000
  -37.9718   -0.4849  -45.9399 N   0  0  0  0  0  0  0  0  0  0  0  0
  -36.7160    0.2639  -45.7987 C   0  0  0  0  0  0  0  0  0  0  0  0
  -37.0043    1.6304  -45.1740 C   0  0  0  0  0  0  0  0  0  0  0  0
  -35.7160    2.3986  -45.0292 C   0  0  0  0  0  0  0  0  0  0  0  0
  -34.6700    1.9019  -45.3902 O   0  0  0  0  0  0  0  0  0  0  0  0
  -35.7260    3.6374  -44.4987 N   0  0  0  0  0  0  0  0  0  0  0  0
  -36.9852    4.2526  -44.0574 C   0  0  0  0  0  0  0  0  0  0  0  0
  -36.8274    4.7107  -42.6041 C   0  0  0  0  0  0  0  0  0  0  0  0
  -35.6069    5.6273  -42.4921 C   0  0  0  0  0  0  0  0  0  0  0  0
  -34.3484    4.8553  -42.8945 C   0  0  0  0  0  0  0  0  0  0  0  0
  -34.4781    4.3988  -44.3511 C   0  0  0  0  0  0  0  0  0  0  0  0
  -37.6939   -2.0220  -46.6359 X   0  0  0  0  0  0  0  0  0  0  0  0
  1  2  1  0  0  0  0
  1 12  1  0  0  0  0
  2  3  1  0  0  0  0
  3  4  1  0  0  0  0
  4  5  2  0  0  0  0
  4  6  1  0  0  0  0
  6  7  1  0  0  0  0
  6 11  1  0  0  0  0
  7  8  1  0  0  0  0
  8  9  1  0  0  0  0
  9 10  1  0  0  0  0
 10 11  1  0  0  0  0
M  END
> <Index>
7198

> <PropertyFieldDistance>
nan

$$$$
14728004
BBcorina  12272117083D 1   1.00000     0.00000 
CORINA 4.3.0 0026  30.10.2019
  8  8  0  0  0  0  0  0  0  0999 V2000
  -32.8568    5.1116  -41.6072 C   0  0  0  0  0  0  0  0  0  0  0  0
  -34.0462    5.5089  -42.2924 O   0  0  0  0  0  0  0  0  0  0  0  0
  -34.9963    4.4557  -42.4657 C   0  0  0  0  0  0  0  0  0  0  0  0
  -36.4271    5.0338  -42.5595 C   0  0  0  0  0  0  0  0  0  0  0  0
  -37.0854    4.1536  -43.6516 C   0  0  0  0  0  0  0  0  0  0  0  0
  -35.9828    3.9350  -44.6224 N   0  0  0  0  0  0  0  0  0  0  0  0
  -34.7625    3.7407  -43.8095 C   0  0  0  0  0  0  0  0  0  0  0  0
  -36.2908    2.5675  -45.6018 X   0  0  0  0  0  0  0  0  0  0  0  0
  1  2  1  0  0  0  0
  2  3  1  0  0  0  0
  3  4  1  0  0  0  0
  3  7  1  0  0  0  0
  4  5  1  0  0  0  0
  5  6  1  0  0  0  0
  6  7  1  0  0  0  0
  6  8  1  0  0  0  0
M  END
> <Index>
7206

> <PropertyFieldDistance>
nan

$$$$
13580022
BBcorina  12272117083D 1   1.00000     0.00000 
CORINA 4.3.0 0026  30.10.2019
 11 11  0  0  0  0  0  0  0  0999 V2000
  -36.0191    3.9414  -44.5845 N   0  0  0  0  0  0  0  0  0  0  0  0
  -36.9723    4.0086  -43.4694 C   0  0  0  0  0  0  0  0  0  0  0  0
  -36.6793    5.2476  -42.6203 C   0  0  0  0  0  0  0  0  0  0  0  0
  -35.2462    5.1675  -42.0868 C   0  0  0  0  0  0  0  0  0  0  0  0
  -34.2769    5.0496  -43.2664 C   0  0  0  0  0  0  0  0  0  0  0  0
  -34.6396    3.8164  -44.0971 C   0  0  0  0  0  0  0  0  0  0  0  0
  -34.9470    6.3478  -41.3390 O   0  0  0  0  0  0  0  0  0  0  0  0
  -35.2557    6.2480  -39.9474 C   0  0  0  0  0  0  0  0  0  0  0  0
  -34.9101    7.5118  -39.2763 C   0  0  0  0  0  0  0  0  0  0  0  0
  -34.6345    8.5197  -38.7410 C   0  0  0  0  0  0  0  0  0  0  0  0
  -36.4111    2.6624  -45.6495 X   0  0  0  0  0  0  0  0  0  0  0  0
  1  2  1  0  0  0  0
  1  6  1  0  0  0  0
  1 11  1  0  0  0  0
  2  3  1  0  0  0  0
  3  4  1  0  0  0  0
  4  5  1  0  0  0  0
  4  7  1  0  0  0  0
  5  6  1  0  0  0  0
  7  8  1  0  0  0  0
  8  9  1  0  0  0  0
  9 10  3  0  0  0  0
M  END
> <Index>
7208

> <PropertyFieldDistance>
nan

$$$$
11353838
BBcorina  12272117083D 1   1.00000     0.00000 
CORINA 4.3.0 0026  30.10.2019
  8  8  0  0  0  0  0  0  0  0999 V2000
  -32.7331    5.2519  -42.1203 O   0  0  0  0  0  0  0  0  0  0  0  0
  -34.1042    5.6523  -42.1633 C   0  0  0  0  0  0  0  0  0  0  0  0
  -34.9803    4.4380  -42.4781 C   0  0  0  0  0  0  0  0  0  0  0  0
  -36.4720    4.8297  -42.4412 C   0  0  0  0  0  0  0  0  0  0  0  0
  -36.9954    4.5500  -43.8664 C   0  0  0  0  0  0  0  0  0  0  0  0
  -36.0642    3.5302  -44.4138 N   0  0  0  0  0  0  0  0  0  0  0  0
  -34.7261    3.9531  -43.9215 C   0  0  0  0  0  0  0  0  0  0  0  0
  -36.1112    3.5122  -46.1231 X   0  0  0  0  0  0  0  0  0  0  0  0
  1  2  1  0  0  0  0
  2  3  1  0  0  0  0
  3  4  1  0  0  0  0
  3  7  1  0  0  0  0
  4  5  1  0  0  0  0
  5  6  1  0  0  0  0
  6  7  1  0  0  0  0
  6  8  1  0  0  0  0
M  END
> <Index>
7209

> <PropertyFieldDistance>
nan

$$$$
16514610
BBcorina  12272117083D 1   1.00000     0.00000 
CORINA 4.3.0 0026  30.10.2019
  9  9  0  0  0  0  0  0  0  0999 V2000
  -31.9098    4.7621  -43.7054 O   0  0  0  0  0  0  0  0  0  0  0  0
  -32.9630    5.6821  -43.4116 C   0  0  0  0  0  0  0  0  0  0  0  0
  -34.2558    4.9088  -43.1443 C   0  0  0  0  0  0  0  0  0  0  0  0
  -35.3535    5.8832  -42.7080 C   0  0  0  0  0  0  0  0  0  0  0  0
  -36.6587    5.1099  -42.5007 C   0  0  0  0  0  0  0  0  0  0  0  0
  -37.0290    4.3869  -43.7977 C   0  0  0  0  0  0  0  0  0  0  0  0
  -35.9479    3.4664  -44.1723 N   0  0  0  0  0  0  0  0  0  0  0  0
  -34.6959    4.1916  -44.4226 C   0  0  0  0  0  0  0  0  0  0  0  0
  -36.3899    2.5210  -45.5269 X   0  0  0  0  0  0  0  0  0  0  0  0
  1  2  1  0  0  0  0
  2  3  1  0  0  0  0
  3  4  1  0  0  0  0
  3  8  1  0  0  0  0
  4  5  1  0  0  0  0
  5  6  1  0  0  0  0
  6  7  1  0  0  0  0
  7  8  1  0  0  0  0
  7  9  1  0  0  0  0
M  END
> <Index>
7218

> <PropertyFieldDistance>
nan

$$$$
15160122
BBcorina  12272117083D 1   1.00000     0.00000 
CORINA 4.3.0 0026  30.10.2019
 10 11  0  0  0  0  0  0  0  0999 V2000
  -35.9509    3.4659  -44.1721 N   0  0  0  0  0  0  0  0  0  0  0  0
  -37.0163    4.4070  -43.8052 C   0  0  0  0  0  0  0  0  0  0  0  0
  -36.6644    5.0981  -42.4860 C   0  0  0  0  0  0  0  0  0  0  0  0
  -35.3569    5.8791  -42.6592 C   0  0  0  0  0  0  0  0  0  0  0  0
  -34.2724    4.9242  -43.1563 C   0  0  0  0  0  0  0  0  0  0  0  0
  -33.7031    4.0188  -42.0570 C   0  0  0  0  0  0  0  0  0  0  0  0
  -32.6681    5.1258  -41.7916 C   0  0  0  0  0  0  0  0  0  0  0  0
  -32.8842    5.5689  -43.2510 C   0  0  0  0  0  0  0  0  0  0  0  0
  -34.6833    4.1684  -44.4182 C   0  0  0  0  0  0  0  0  0  0  0  0
  -36.4036    2.5258  -45.5269 X   0  0  0  0  0  0  0  0  0  0  0  0
  1  2  1  0  0  0  0
  1  9  1  0  0  0  0
  1 10  1  0  0  0  0
  2  3  1  0  0  0  0
  3  4  1  0  0  0  0
  4  5  1  0  0  0  0
  5  6  1  0  0  0  0
  5  8  1  0  0  0  0
  5  9  1  0  0  0  0
  6  7  1  0  0  0  0
  7  8  1  0  0  0  0
M  END
> <Index>
7229

> <PropertyFieldDistance>
nan

$$$$
14590064
BBcorina  12272117083D 1   1.00000     0.00000 
CORINA 4.3.0 0026  30.10.2019
 11 11  0  0  0  0  0  0  0  0999 V2000
  -36.0191    3.9414  -44.5845 N   0  0  0  0  0  0  0  0  0  0  0  0
  -36.9724    4.0087  -43.4695 C   0  0  0  0  0  0  0  0  0  0  0  0
  -36.6793    5.2475  -42.6202 C   0  0  0  0  0  0  0  0  0  0  0  0
  -35.2462    5.1676  -42.0870 C   0  0  0  0  0  0  0  0  0  0  0  0
  -34.2769    5.0496  -43.2665 C   0  0  0  0  0  0  0  0  0  0  0  0
  -34.6396    3.8164  -44.0970 C   0  0  0  0  0  0  0  0  0  0  0  0
  -32.9415    4.9180  -42.7753 O   0  0  0  0  0  0  0  0  0  0  0  0
  -31.9456    5.4542  -43.6486 C   0  0  0  0  0  0  0  0  0  0  0  0
  -30.6145    5.2667  -43.0487 C   0  0  0  0  0  0  0  0  0  0  0  0
  -29.5530    5.1171  -42.5701 C   0  0  0  0  0  0  0  0  0  0  0  0
  -36.4110    2.6621  -45.6494 X   0  0  0  0  0  0  0  0  0  0  0  0
  1  2  1  0  0  0  0
  1  6  1  0  0  0  0
  1 11  1  0  0  0  0
  2  3  1  0  0  0  0
  3  4  1  0  0  0  0
  4  5  1  0  0  0  0
  5  6  1  0  0  0  0
  5  7  1  0  0  0  0
  7  8  1  0  0  0  0
  8  9  1  0  0  0  0
  9 10  3  0  0  0  0
M  END
> <Index>
7233

> <PropertyFieldDistance>
nan

$$$$
6202962
BBcorina  12272117083D 1   1.00000     0.00000 
CORINA 4.3.0 0026  30.10.2019
  8  8  0  0  0  0  0  0  0  0999 V2000
  -34.1712    6.0623  -43.0087 C   0  0  0  0  0  0  0  0  0  0  0  0
  -34.9157    4.7714  -42.6625 C   0  0  0  0  0  0  0  0  0  0  0  0
  -34.3863    4.1892  -41.3503 C   0  0  0  0  0  0  0  0  0  0  0  0
  -36.4313    5.0387  -42.5571 C   0  0  0  0  0  0  0  0  0  0  0  0
  -37.0719    4.1506  -43.6453 C   0  0  0  0  0  0  0  0  0  0  0  0
  -35.9864    3.9297  -44.6352 N   0  0  0  0  0  0  0  0  0  0  0  0
  -34.7681    3.7442  -43.8055 C   0  0  0  0  0  0  0  0  0  0  0  0
  -36.2971    2.5430  -45.5862 X   0  0  0  0  0  0  0  0  0  0  0  0
  1  2  1  0  0  0  0
  2  3  1  0  0  0  0
  2  4  1  0  0  0  0
  2  7  1  0  0  0  0
  4  5  1  0  0  0  0
  5  6  1  0  0  0  0
  6  7  1  0  0  0  0
  6  8  1  0  0  0  0
M  END
> <Index>
7236

> <PropertyFieldDistance>
nan

$$$$
12106348
BBcorina  12272117083D 1   1.00000     0.00000 
CORINA 4.3.0 0026  30.10.2019
 10 11  0  0  0  0  0  0  0  0999 V2000
  -35.9407    3.4907  -44.2075 N   0  0  0  0  0  0  0  0  0  0  0  0
  -37.0358    4.3499  -43.7581 C   0  0  0  0  0  0  0  0  0  0  0  0
  -36.6582    5.1637  -42.5067 C   0  0  0  0  0  0  0  0  0  0  0  0
  -35.4039    5.9359  -42.8544 C   0  0  0  0  0  0  0  0  0  0  0  0
  -34.7409    6.7687  -41.7677 C   0  0  0  0  0  0  0  0  0  0  0  0
  -33.3172    6.6748  -42.0050 O   0  0  0  0  0  0  0  0  0  0  0  0
  -33.0664    5.7763  -43.1160 C   0  0  0  0  0  0  0  0  0  0  0  0
  -34.2979    4.8715  -43.1312 C   0  0  0  0  0  0  0  0  0  0  0  0
  -34.6547    4.1878  -44.4342 C   0  0  0  0  0  0  0  0  0  0  0  0
  -36.3965    2.5878  -45.5864 X   0  0  0  0  0  0  0  0  0  0  0  0
  1  2  1  0  0  0  0
  1  9  1  0  0  0  0
  1 10  1  0  0  0  0
  2  3  1  0  0  0  0
  3  4  1  0  0  0  0
  4  5  1  0  0  0  0
  4  8  1  0  0  0  0
  5  6  1  0  0  0  0
  6  7  1  0  0  0  0
  7  8  1  0  0  0  0
  8  9  1  0  0  0  0
M  END
> <Index>
7240

> <PropertyFieldDistance>
nan

$$$$
17633374
BBcorina  12272117083D 1   1.00000     0.00000 
CORINA 4.3.0 0026  30.10.2019
 11 12  0  0  0  0  0  0  0  0999 V2000
  -36.0157    3.9374  -44.5838 N   0  0  0  0  0  0  0  0  0  0  0  0
  -36.9752    4.0171  -43.4762 C   0  0  0  0  0  0  0  0  0  0  0  0
  -36.6787    5.2458  -42.6104 C   0  0  0  0  0  0  0  0  0  0  0  0
  -35.2478    5.1428  -42.0817 C   0  0  0  0  0  0  0  0  0  0  0  0
  -34.8892    6.3783  -41.2547 C   0  0  0  0  0  0  0  0  0  0  0  0
  -33.4300    6.2604  -40.8014 C   0  0  0  0  0  0  0  0  0  0  0  0
  -32.5796    6.1114  -41.9390 O   0  0  0  0  0  0  0  0  0  0  0  0
  -32.8532    4.9574  -42.7393 C   0  0  0  0  0  0  0  0  0  0  0  0
  -34.2836    5.0499  -43.2703 C   0  0  0  0  0  0  0  0  0  0  0  0
  -34.6341    3.8134  -44.0969 C   0  0  0  0  0  0  0  0  0  0  0  0
  -36.4091    2.6551  -45.6445 X   0  0  0  0  0  0  0  0  0  0  0  0
  1  2  1  0  0  0  0
  1 10  1  0  0  0  0
  1 11  1  0  0  0  0
  2  3  1  0  0  0  0
  3  4  1  0  0  0  0
  4  5  1  0  0  0  0
  4  9  1  0  0  0  0
  5  6  1  0  0  0  0
  6  7  1  0  0  0  0
  7  8  1  0  0  0  0
  8  9  1  0  0  0  0
  9 10  1  0  0  0  0
M  END
> <Index>
7241

> <PropertyFieldDistance>
nan

$$$$
12108714
BBcorina  12272117083D 1   1.00000     0.00000 
CORINA 4.3.0 0026  30.10.2019
  9 10  0  0  0  0  0  0  0  0999 V2000
  -36.0599    3.5401  -44.4086 N   0  0  0  0  0  0  0  0  0  0  0  0
  -37.0116    4.5465  -43.8689 C   0  0  0  0  0  0  0  0  0  0  0  0
  -36.4666    4.8298  -42.4434 C   0  0  0  0  0  0  0  0  0  0  0  0
  -34.9483    4.7558  -42.6467 C   0  0  0  0  0  0  0  0  0  0  0  0
  -34.1185    4.3737  -41.4315 C   0  0  0  0  0  0  0  0  0  0  0  0
  -33.1350    5.3277  -41.8615 O   0  0  0  0  0  0  0  0  0  0  0  0
  -34.1819    6.0622  -42.5148 C   0  0  0  0  0  0  0  0  0  0  0  0
  -34.7196    3.9467  -43.9221 C   0  0  0  0  0  0  0  0  0  0  0  0
  -36.1073    3.5066  -46.1176 X   0  0  0  0  0  0  0  0  0  0  0  0
  1  2  1  0  0  0  0
  1  8  1  0  0  0  0
  1  9  1  0  0  0  0
  2  3  1  0  0  0  0
  3  4  1  0  0  0  0
  4  5  1  0  0  0  0
  4  7  1  0  0  0  0
  4  8  1  0  0  0  0
  5  6  1  0  0  0  0
  6  7  1  0  0  0  0
M  END
> <Index>
7243

> <PropertyFieldDistance>
nan

$$$$
16497010
BBcorina  12272117083D 1   1.00000     0.00000 
CORINA 4.3.0 0026  30.10.2019
 10 10  0  0  0  0  0  0  0  0999 V2000
  -36.3145    2.3491  -45.1225 C   0  0  0  0  0  0  0  0  0  0  0  0
  -36.0437    3.3950  -44.1331 N   0  0  0  0  0  0  0  0  0  0  0  0
  -37.0789    4.0941  -43.3626 C   0  0  0  0  0  0  0  0  0  0  0  0
  -38.2460    4.4811  -44.2732 C   0  0  0  0  0  0  0  0  0  0  0  0
  -38.7715    3.2787  -44.9334 N   0  0  0  0  0  0  0  0  0  0  0  0
  -36.3927    5.3610  -42.8053 C   0  0  0  0  0  0  0  0  0  0  0  0
  -34.9096    4.9254  -42.7672 C   0  0  0  0  0  0  0  0  0  0  0  0
  -34.8152    3.8381  -43.8148 C   0  0  0  0  0  0  0  0  0  0  0  0
  -33.7813    3.4229  -44.2939 O   0  0  0  0  0  0  0  0  0  0  0  0
  -40.0804    3.6675  -45.9629 X   0  0  0  0  0  0  0  0  0  0  0  0
  1  2  1  0  0  0  0
  2  3  1  0  0  0  0
  2  8  1  0  0  0  0
  3  4  1  0  0  0  0
  3  6  1  0  0  0  0
  4  5  1  0  0  0  0
  5 10  1  0  0  0  0
  6  7  1  0  0  0  0
  7  8  1  0  0  0  0
  8  9  2  0  0  0  0
M  END
> <Index>
7246

> <PropertyFieldDistance>
nan

$$$$
9449512
BBcorina  12272117083D 1   1.00000     0.00000 
CORINA 4.3.0 0026  30.10.2019
 13 13  0  0  0  0  0  0  0  0999 V2000
  -37.3098    5.8036  -41.4466 C   0  0  0  0  0  0  0  0  0  0  0  0
  -36.5429    5.4197  -42.7136 C   0  0  0  0  0  0  0  0  0  0  0  0
  -36.9886    4.0312  -43.1799 C   0  0  0  0  0  0  0  0  0  0  0  0
  -36.1943    3.6341  -44.3516 N   0  0  0  0  0  0  0  0  0  0  0  0
  -36.6301    2.3288  -44.8652 C   0  0  0  0  0  0  0  0  0  0  0  0
  -35.6329    1.8350  -45.9154 C   0  0  0  0  0  0  0  0  0  0  0  0
  -36.0688    0.5296  -46.4289 N   0  0  0  0  0  0  0  0  0  0  0  0
  -35.1330    0.0232  -47.4418 C   0  0  0  0  0  0  0  0  0  0  0  0
  -34.7602    3.6211  -44.0286 C   0  0  0  0  0  0  0  0  0  0  0  0
  -34.3365    5.0139  -43.5548 C   0  0  0  0  0  0  0  0  0  0  0  0
  -32.8635    4.9871  -43.1420 C   0  0  0  0  0  0  0  0  0  0  0  0
  -35.1402    5.3960  -42.4352 O   0  0  0  0  0  0  0  0  0  0  0  0
  -37.6588    0.6162  -47.0524 X   0  0  0  0  0  0  0  0  0  0  0  0
  1  2  1  0  0  0  0
  2  3  1  0  0  0  0
  2 12  1  0  0  0  0
  3  4  1  0  0  0  0
  4  5  1  0  0  0  0
  4  9  1  0  0  0  0
  5  6  1  0  0  0  0
  6  7  1  0  0  0  0
  7  8  1  0  0  0  0
  7 13  1  0  0  0  0
  9 10  1  0  0  0  0
 10 11  1  0  0  0  0
 10 12  1  0  0  0  0
M  END
> <Index>
7250

> <PropertyFieldDistance>
nan

$$$$
9744412
BBcorina  12272117083D 1   1.00000     0.00000 
CORINA 4.3.0 0026  30.10.2019
 13 14  0  0  0  0  0  0  0  0999 V2000
  -36.3352    2.3074  -44.8784 C   0  0  0  0  0  0  0  0  0  0  0  0
  -35.9453    3.3420  -43.9112 N   0  0  0  0  0  0  0  0  0  0  0  0
  -37.0436    4.2897  -43.6828 C   0  0  0  0  0  0  0  0  0  0  0  0
  -36.6558    5.2624  -42.5665 C   0  0  0  0  0  0  0  0  0  0  0  0
  -35.3834    6.0115  -42.9691 C   0  0  0  0  0  0  0  0  0  0  0  0
  -34.9556    6.9423  -41.8323 C   0  0  0  0  0  0  0  0  0  0  0  0
  -33.7161    7.7296  -42.2671 C   0  0  0  0  0  0  0  0  0  0  0  0
  -34.0344    8.5069  -43.5463 C   0  0  0  0  0  0  0  0  0  0  0  0
  -34.4365    7.5703  -44.6034 N   0  0  0  0  0  0  0  0  0  0  0  0
  -35.6524    6.8372  -44.2284 C   0  0  0  0  0  0  0  0  0  0  0  0
  -34.2688    5.0006  -43.2489 C   0  0  0  0  0  0  0  0  0  0  0  0
  -34.7260    4.0355  -44.3453 C   0  0  0  0  0  0  0  0  0  0  0  0
  -34.6452    8.3816  -46.0942 X   0  0  0  0  0  0  0  0  0  0  0  0
  1  2  1  0  0  0  0
  2  3  1  0  0  0  0
  2 12  1  0  0  0  0
  3  4  1  0  0  0  0
  4  5  1  0  0  0  0
  5  6  1  0  0  0  0
  5 10  1  0  0  0  0
  5 11  1  0  0  0  0
  6  7  1  0  0  0  0
  7  8  1  0  0  0  0
  8  9  1  0  0  0  0
  9 10  1  0  0  0  0
  9 13  1  0  0  0  0
 11 12  1  0  0  0  0
M  END
> <Index>
7257

> <PropertyFieldDistance>
nan

$$$$
6507866
BBcorina  12272117083D 1   1.00000     0.00000 
CORINA 4.3.0 0026  30.10.2019
 11 12  0  0  0  0  0  0  0  0999 V2000
  -36.5875    6.5027  -43.7103 N   0  0  0  0  0  0  0  0  0  0  0  0
  -36.3934    5.3615  -42.8059 C   0  0  0  0  0  0  0  0  0  0  0  0
  -37.0783    4.0932  -43.3613 C   0  0  0  0  0  0  0  0  0  0  0  0
  -36.0436    3.3960  -44.1342 N   0  0  0  0  0  0  0  0  0  0  0  0
  -36.3148    2.3490  -45.1223 C   0  0  0  0  0  0  0  0  0  0  0  0
  -35.6989    0.9700  -44.8775 C   0  0  0  0  0  0  0  0  0  0  0  0
  -35.1445    1.8707  -45.9840 C   0  0  0  0  0  0  0  0  0  0  0  0
  -34.8149    3.8376  -43.8148 C   0  0  0  0  0  0  0  0  0  0  0  0
  -33.7812    3.4233  -44.2951 O   0  0  0  0  0  0  0  0  0  0  0  0
  -34.9093    4.9290  -42.7713 C   0  0  0  0  0  0  0  0  0  0  0  0
  -36.0240    6.1404  -45.2836 X   0  0  0  0  0  0  0  0  0  0  0  0
  1  2  1  0  0  0  0
  1 11  1  0  0  0  0
  2  3  1  0  0  0  0
  2 10  1  0  0  0  0
  3  4  1  0  0  0  0
  4  5  1  0  0  0  0
  4  8  1  0  0  0  0
  5  6  1  0  0  0  0
  5  7  1  0  0  0  0
  6  7  1  0  0  0  0
  8  9  2  0  0  0  0
  8 10  1  0  0  0  0
M  END
> <Index>
7260

> <PropertyFieldDistance>
nan

$$$$
4968324
BBcorina  12272117083D 1   1.00000     0.00000 
CORINA 4.3.0 0026  30.10.2019
 14 15  0  0  0  0  0  0  0  0999 V2000
  -37.1298    0.6832  -48.8679 C   0  0  0  0  0  0  0  0  0  0  0  0
  -36.8443    1.3450  -47.5445 C   0  0  0  0  0  0  0  0  0  0  0  0
  -35.5469    1.4075  -47.0700 C   0  0  0  0  0  0  0  0  0  0  0  0
  -35.2818    2.0136  -45.8577 C   0  0  0  0  0  0  0  0  0  0  0  0
  -36.3201    2.5608  -45.1148 C   0  0  0  0  0  0  0  0  0  0  0  0
  -37.6229    2.4916  -45.5918 C   0  0  0  0  0  0  0  0  0  0  0  0
  -37.8804    1.8886  -46.8073 C   0  0  0  0  0  0  0  0  0  0  0  0
  -36.0556    3.1741  -43.8881 N   0  0  0  0  0  0  0  0  0  0  0  0
  -37.1173    4.1423  -43.5399 C   0  0  0  0  0  0  0  0  0  0  0  0
  -36.3879    5.2751  -42.7753 C   0  0  0  0  0  0  0  0  0  0  0  0
  -35.0431    5.3568  -43.5503 C   0  0  0  0  0  0  0  0  0  0  0  0
  -34.7642    3.8849  -43.9203 C   0  0  0  0  0  0  0  0  0  0  0  0
  -33.9783    5.8863  -42.6878 N   0  0  0  0  0  0  0  0  0  0  0  0
  -33.7758    7.5675  -42.9261 X   0  0  0  0  0  0  0  0  0  0  0  0
  1  2  1  0  0  0  0
  2  3  2  0  0  0  0
  2  7  1  0  0  0  0
  3  4  1  0  0  0  0
  4  5  2  0  0  0  0
  5  6  1  0  0  0  0
  5  8  1  0  0  0  0
  6  7  2  0  0  0  0
  8  9  1  0  0  0  0
  8 12  1  0  0  0  0
  9 10  1  0  0  0  0
 10 11  1  0  0  0  0
 11 12  1  0  0  0  0
 11 13  1  0  0  0  0
 13 14  1  0  0  0  0
M  END
> <Index>
7265

> <PropertyFieldDistance>
nan

$$$$
5730700
BBcorina  12272117083D 1   1.00000     0.00000 
CORINA 4.3.0 0026  30.10.2019
 14 15  0  0  0  0  0  0  0  0999 V2000
  -38.3890   -0.3103  -46.1665 C   0  0  0  0  0  0  0  0  0  0  0  0
  -37.4023    0.7277  -45.8580 N   0  0  0  0  0  0  0  0  0  0  0  0
  -37.3994    1.5281  -44.7588 C   0  0  0  0  0  0  0  0  0  0  0  0
  -36.3227    2.3487  -44.8529 C   0  0  0  0  0  0  0  0  0  0  0  0
  -35.6524    2.0436  -46.0461 C   0  0  0  0  0  0  0  0  0  0  0  0
  -36.2946    1.0721  -46.6430 N   0  0  0  0  0  0  0  0  0  0  0  0
  -35.9485    3.3354  -43.9208 N   0  0  0  0  0  0  0  0  0  0  0  0
  -37.0458    4.2832  -43.6894 C   0  0  0  0  0  0  0  0  0  0  0  0
  -36.6580    5.2506  -42.5688 C   0  0  0  0  0  0  0  0  0  0  0  0
  -35.3849    6.0022  -42.9677 C   0  0  0  0  0  0  0  0  0  0  0  0
  -34.2713    4.9899  -43.2501 C   0  0  0  0  0  0  0  0  0  0  0  0
  -34.7283    4.0300  -44.3511 C   0  0  0  0  0  0  0  0  0  0  0  0
  -33.0622    5.6994  -43.6890 N   0  0  0  0  0  0  0  0  0  0  0  0
  -33.3891    6.6855  -45.0471 X   0  0  0  0  0  0  0  0  0  0  0  0
  1  2  1  0  0  0  0
  2  3  1  0  0  0  0
  2  6  1  0  0  0  0
  3  4  2  0  0  0  0
  4  5  1  0  0  0  0
  4  7  1  0  0  0  0
  5  6  2  0  0  0  0
  7  8  1  0  0  0  0
  7 12  1  0  0  0  0
  8  9  1  0  0  0  0
  9 10  1  0  0  0  0
 10 11  1  0  0  0  0
 11 12  1  0  0  0  0
 11 13  1  0  0  0  0
 13 14  1  0  0  0  0
M  END
> <Index>
7266

> <PropertyFieldDistance>
nan

$$$$
7866874
BBcorina  12272117083D 1   1.00000     0.00000 
CORINA 4.3.0 0026  30.10.2019
 12 12  0  0  0  0  0  0  0  0999 V2000
  -36.9987    1.6299  -45.2703 C   0  0  0  0  0  0  0  0  0  0  0  0
  -35.8226    2.5984  -45.4106 C   0  0  0  0  0  0  0  0  0  0  0  0
  -36.0939    3.5664  -46.5640 C   0  0  0  0  0  0  0  0  0  0  0  0
  -34.5435    1.8093  -45.6972 C   0  0  0  0  0  0  0  0  0  0  0  0
  -34.7007    1.0718  -46.9111 O   0  0  0  0  0  0  0  0  0  0  0  0
  -35.6610    3.3565  -44.1628 N   0  0  0  0  0  0  0  0  0  0  0  0
  -36.8730    4.1284  -43.8549 C   0  0  0  0  0  0  0  0  0  0  0  0
  -36.6943    4.8390  -42.5111 C   0  0  0  0  0  0  0  0  0  0  0  0
  -35.5172    5.7163  -42.5765 N   0  0  0  0  0  0  0  0  0  0  0  0
  -34.3052    4.9443  -42.8845 C   0  0  0  0  0  0  0  0  0  0  0  0
  -34.4838    4.2337  -44.2281 C   0  0  0  0  0  0  0  0  0  0  0  0
  -35.3291    6.5988  -41.1239 X   0  0  0  0  0  0  0  0  0  0  0  0
  1  2  1  0  0  0  0
  2  3  1  0  0  0  0
  2  4  1  0  0  0  0
  2  6  1  0  0  0  0
  4  5  1  0  0  0  0
  6  7  1  0  0  0  0
  6 11  1  0  0  0  0
  7  8  1  0  0  0  0
  8  9  1  0  0  0  0
  9 10  1  0  0  0  0
  9 12  1  0  0  0  0
 10 11  1  0  0  0  0
M  END
> <Index>
7267

> <PropertyFieldDistance>
nan

$$$$
12213426
BBcorina  12272117083D 1   1.00000     0.00000 
CORINA 4.3.0 0026  30.10.2019
 11 11  0  0  0  0  0  0  0  0999 V2000
  -38.8670    7.3816  -45.1995 N   0  0  0  0  0  0  0  0  0  0  0  0
  -38.5444    6.2986  -44.4320 N   0  0  0  0  0  0  0  0  0  0  0  0
  -37.3977    5.6282  -44.6607 C   0  0  0  0  0  0  0  0  0  0  0  0
  -36.6524    5.9866  -45.5479 O   0  0  0  0  0  0  0  0  0  0  0  0
  -37.0417    4.4335  -43.8141 C   0  0  0  0  0  0  0  0  0  0  0  0
  -36.4461    4.8928  -42.4648 C   0  0  0  0  0  0  0  0  0  0  0  0
  -34.9300    4.8797  -42.7686 C   0  0  0  0  0  0  0  0  0  0  0  0
  -34.7867    3.8840  -43.8986 C   0  0  0  0  0  0  0  0  0  0  0  0
  -33.7431    3.3729  -44.2458 O   0  0  0  0  0  0  0  0  0  0  0  0
  -35.9833    3.6528  -44.4655 N   0  0  0  0  0  0  0  0  0  0  0  0
  -40.4116    7.1919  -45.9084 X   0  0  0  0  0  0  0  0  0  0  0  0
  1  2  1  0  0  0  0
  1 11  1  0  0  0  0
  2  3  1  0  0  0  0
  3  4  2  0  0  0  0
  3  5  1  0  0  0  0
  5  6  1  0  0  0  0
  5 10  1  0  0  0  0
  6  7  1  0  0  0  0
  7  8  1  0  0  0  0
  8  9  2  0  0  0  0
  8 10  1  0  0  0  0
M  END
> <Index>
7282

> <PropertyFieldDistance>
nan

$$$$
7044188
BBcorina  12272117083D 1   1.00000     0.00000 
CORINA 4.3.0 0026  30.10.2019
  8  8  0  0  0  0  0  0  0  0999 V2000
  -33.6959    1.8910  -42.9237 N   0  0  0  0  0  0  0  0  0  0  0  0
  -34.6216    2.5551  -43.8509 C   0  0  0  0  0  0  0  0  0  0  0  0
  -34.8156    4.0102  -43.4186 C   0  0  0  0  0  0  0  0  0  0  0  0
  -35.9714    4.6077  -44.2311 C   0  0  0  0  0  0  0  0  0  0  0  0
  -37.2687    3.9146  -43.8091 C   0  0  0  0  0  0  0  0  0  0  0  0
  -37.0888    2.4249  -43.8334 C   0  0  0  0  0  0  0  0  0  0  0  0
  -35.9374    1.8335  -43.8422 C   0  0  0  0  0  0  0  0  0  0  0  0
  -32.0708    2.1588  -43.3834 X   0  0  0  0  0  0  0  0  0  0  0  0
  1  2  1  0  0  0  0
  1  8  1  0  0  0  0
  2  3  1  0  0  0  0
  2  7  1  0  0  0  0
  3  4  1  0  0  0  0
  4  5  1  0  0  0  0
  5  6  1  0  0  0  0
  6  7  2  0  0  0  0
M  END
> <Index>
7325

> <PropertyFieldDistance>
nan

$$$$
7207534
BBcorina  12272117083D 1   1.00000     0.00000 
CORINA 4.3.0 0026  30.10.2019
 10 10  0  0  0  0  0  0  0  0999 V2000
  -33.4343    5.4355  -44.8769 O   0  0  0  0  0  0  0  0  0  0  0  0
  -34.2205    5.1580  -43.7163 C   0  0  0  0  0  0  0  0  0  0  0  0
  -35.3247    4.1614  -44.0745 C   0  0  0  0  0  0  0  0  0  0  0  0
  -36.2412    3.9595  -42.8662 C   0  0  0  0  0  0  0  0  0  0  0  0
  -37.3454    2.9629  -43.2245 C   0  0  0  0  0  0  0  0  0  0  0  0
  -36.7167    1.6244  -43.6169 C   0  0  0  0  0  0  0  0  0  0  0  0
  -35.8002    1.8263  -44.8253 C   0  0  0  0  0  0  0  0  0  0  0  0
  -34.6959    2.8229  -44.4670 C   0  0  0  0  0  0  0  0  0  0  0  0
  -35.9328    1.1023  -42.4896 N   0  0  0  0  0  0  0  0  0  0  0  0
  -35.9096   -0.6075  -42.4990 X   0  0  0  0  0  0  0  0  0  0  0  0
  1  2  1  0  0  0  0
  2  3  1  0  0  0  0
  3  4  1  0  0  0  0
  3  8  1  0  0  0  0
  4  5  1  0  0  0  0
  5  6  1  0  0  0  0
  6  7  1  0  0  0  0
  6  9  1  0  0  0  0
  7  8  1  0  0  0  0
  9 10  1  0  0  0  0
M  END
> <Index>
7334

> <PropertyFieldDistance>
nan

$$$$
8750980
BBcorina  12272117083D 1   1.00000     0.00000 
CORINA 4.3.0 0026  30.10.2019
 10 10  0  0  0  0  0  0  0  0999 V2000
  -36.9972    3.0918  -46.0029 C   0  0  0  0  0  0  0  0  0  0  0  0
  -36.2572    2.5850  -44.7634 C   0  0  0  0  0  0  0  0  0  0  0  0
  -36.9733    3.0784  -43.5046 C   0  0  0  0  0  0  0  0  0  0  0  0
  -36.2333    2.5716  -42.2650 C   0  0  0  0  0  0  0  0  0  0  0  0
  -34.7979    3.1011  -42.2759 C   0  0  0  0  0  0  0  0  0  0  0  0
  -34.0818    2.6077  -43.5347 C   0  0  0  0  0  0  0  0  0  0  0  0
  -34.8218    3.1146  -44.7742 C   0  0  0  0  0  0  0  0  0  0  0  0
  -34.8425    4.6444  -44.7658 C   0  0  0  0  0  0  0  0  0  0  0  0
  -34.0875    2.6145  -41.0858 N   0  0  0  0  0  0  0  0  0  0  0  0
  -34.2619    3.7043  -39.7796 X   0  0  0  0  0  0  0  0  0  0  0  0
  1  2  1  0  0  0  0
  2  3  1  0  0  0  0
  2  7  1  0  0  0  0
  3  4  1  0  0  0  0
  4  5  1  0  0  0  0
  5  6  1  0  0  0  0
  5  9  1  0  0  0  0
  6  7  1  0  0  0  0
  7  8  1  0  0  0  0
  9 10  1  0  0  0  0
M  END
> <Index>
7340

> <PropertyFieldDistance>
nan

$$$$
7207542
BBcorina  12272117083D 1   1.00000     0.00000 
CORINA 4.3.0 0026  30.10.2019
 10 10  0  0  0  0  0  0  0  0999 V2000
  -33.4343    5.4355  -44.8769 O   0  0  0  0  0  0  0  0  0  0  0  0
  -34.2205    5.1580  -43.7163 C   0  0  0  0  0  0  0  0  0  0  0  0
  -35.3247    4.1614  -44.0745 C   0  0  0  0  0  0  0  0  0  0  0  0
  -36.2412    3.9595  -42.8662 C   0  0  0  0  0  0  0  0  0  0  0  0
  -37.3454    2.9629  -43.2245 C   0  0  0  0  0  0  0  0  0  0  0  0
  -36.7167    1.6244  -43.6169 C   0  0  0  0  0  0  0  0  0  0  0  0
  -35.8002    1.8263  -44.8253 C   0  0  0  0  0  0  0  0  0  0  0  0
  -34.6959    2.8229  -44.4670 C   0  0  0  0  0  0  0  0  0  0  0  0
  -35.9328    1.1023  -42.4896 N   0  0  0  0  0  0  0  0  0  0  0  0
  -35.9096   -0.6075  -42.4990 X   0  0  0  0  0  0  0  0  0  0  0  0
  1  2  1  0  0  0  0
  2  3  1  0  0  0  0
  3  4  1  0  0  0  0
  3  8  1  0  0  0  0
  4  5  1  0  0  0  0
  5  6  1  0  0  0  0
  6  7  1  0  0  0  0
  6  9  1  0  0  0  0
  7  8  1  0  0  0  0
  9 10  1  0  0  0  0
M  END
> <Index>
7342

> <PropertyFieldDistance>
nan

$$$$
10157430
BBcorina  12272117083D 1   1.00000     0.00000 
CORINA 4.3.0 0026  30.10.2019
 11 11  0  0  0  0  0  0  0  0999 V2000
  -36.8037    1.1737  -47.0464 C   0  0  0  0  0  0  0  0  0  0  0  0
  -36.8884    1.7080  -45.6153 C   0  0  0  0  0  0  0  0  0  0  0  0
  -35.7301    2.6751  -45.3624 C   0  0  0  0  0  0  0  0  0  0  0  0
  -35.8115    3.1880  -43.9883 N   0  0  0  0  0  0  0  0  0  0  0  0
  -37.0408    3.9858  -43.7925 C   0  0  0  0  0  0  0  0  0  0  0  0
  -36.6383    5.0920  -42.7855 C   0  0  0  0  0  0  0  0  0  0  0  0
  -35.1883    5.4124  -43.2349 C   0  0  0  0  0  0  0  0  0  0  0  0
  -34.6468    4.0344  -43.6704 C   0  0  0  0  0  0  0  0  0  0  0  0
  -33.7610    4.1871  -44.9084 C   0  0  0  0  0  0  0  0  0  0  0  0
  -32.5678    4.9714  -44.5630 N   0  0  0  0  0  0  0  0  0  0  0  0
  -31.6217    5.2911  -45.9511 X   0  0  0  0  0  0  0  0  0  0  0  0
  1  2  1  0  0  0  0
  2  3  1  0  0  0  0
  3  4  1  0  0  0  0
  4  5  1  0  0  0  0
  4  8  1  0  0  0  0
  5  6  1  0  0  0  0
  6  7  1  0  0  0  0
  7  8  1  0  0  0  0
  8  9  1  0  0  0  0
  9 10  1  0  0  0  0
 10 11  1  0  0  0  0
M  END
> <Index>
7354

> <PropertyFieldDistance>
nan

$$$$
11401830
BBcorina  12272117083D 1   1.00000     0.00000 
CORINA 4.3.0 0026  30.10.2019
  7  8  0  0  0  0  0  0  0  0999 V2000
  -33.8575    3.8689  -44.7945 N   0  0  0  0  0  0  0  0  0  0  0  0
  -34.6288    3.8516  -43.5443 C   0  0  0  0  0  0  0  0  0  0  0  0
  -35.9640    4.5985  -43.5276 C   0  0  0  0  0  0  0  0  0  0  0  0
  -35.9432    3.0687  -43.5360 C   0  0  0  0  0  0  0  0  0  0  0  0
  -36.5828    1.9083  -42.7711 C   0  0  0  0  0  0  0  0  0  0  0  0
  -36.5974    1.9165  -44.3010 C   0  0  0  0  0  0  0  0  0  0  0  0
  -32.8308    2.5055  -44.9001 X   0  0  0  0  0  0  0  0  0  0  0  0
  1  2  1  0  0  0  0
  1  7  1  0  0  0  0
  2  3  1  0  0  0  0
  2  4  1  0  0  0  0
  3  4  1  0  0  0  0
  4  5  1  0  0  0  0
  4  6  1  0  0  0  0
  5  6  1  0  0  0  0
M  END
> <Index>
7358

> <PropertyFieldDistance>
nan

$$$$
7689400
BBcorina  12272117083D 1   1.00000     0.00000 
CORINA 4.3.0 0026  30.10.2019
  8  8  0  0  0  0  0  0  0  0999 V2000
  -36.2625    0.3862  -46.2080 N   0  0  0  0  0  0  0  0  0  0  0  0
  -35.7159    1.6581  -45.7165 C   0  0  0  0  0  0  0  0  0  0  0  0
  -36.7555    2.3531  -44.8348 C   0  0  0  0  0  0  0  0  0  0  0  0
  -36.2089    3.6250  -44.3433 N   0  0  0  0  0  0  0  0  0  0  0  0
  -37.2557    4.4328  -43.6901 C   0  0  0  0  0  0  0  0  0  0  0  0
  -36.2259    4.7929  -42.6100 C   0  0  0  0  0  0  0  0  0  0  0  0
  -35.5893    3.4563  -43.0157 C   0  0  0  0  0  0  0  0  0  0  0  0
  -35.1300   -0.4248  -47.1999 X   0  0  0  0  0  0  0  0  0  0  0  0
  1  2  1  0  0  0  0
  1  8  1  0  0  0  0
  2  3  1  0  0  0  0
  3  4  1  0  0  0  0
  4  5  1  0  0  0  0
  4  7  1  0  0  0  0
  5  6  1  0  0  0  0
  6  7  1  0  0  0  0
M  END
> <Index>
7362

> <PropertyFieldDistance>
nan

$$$$
13570624
BBcorina  12272117083D 1   1.00000     0.00000 
CORINA 4.3.0 0026  30.10.2019
 11 12  0  0  0  0  0  0  0  0999 V2000
  -37.9463    7.1055  -43.0924 N   0  0  0  0  0  0  0  0  0  0  0  0
  -36.6036    6.6182  -42.7495 C   0  0  0  0  0  0  0  0  0  0  0  0
  -36.6566    5.1095  -42.5008 C   0  0  0  0  0  0  0  0  0  0  0  0
  -37.0287    4.3881  -43.7993 C   0  0  0  0  0  0  0  0  0  0  0  0
  -35.9478    3.4652  -44.1708 N   0  0  0  0  0  0  0  0  0  0  0  0
  -34.6962    4.1922  -44.4236 C   0  0  0  0  0  0  0  0  0  0  0  0
  -34.2580    4.9086  -43.1432 C   0  0  0  0  0  0  0  0  0  0  0  0
  -35.2801    4.6163  -42.0374 C   0  0  0  0  0  0  0  0  0  0  0  0
  -35.3503    3.0988  -41.8247 C   0  0  0  0  0  0  0  0  0  0  0  0
  -35.7579    2.4332  -43.1421 C   0  0  0  0  0  0  0  0  0  0  0  0
  -37.9319    8.7912  -43.3789 X   0  0  0  0  0  0  0  0  0  0  0  0
  1  2  1  0  0  0  0
  1 11  1  0  0  0  0
  2  3  1  0  0  0  0
  3  4  1  0  0  0  0
  3  8  1  0  0  0  0
  4  5  1  0  0  0  0
  5  6  1  0  0  0  0
  5 10  1  0  0  0  0
  6  7  1  0  0  0  0
  7  8  1  0  0  0  0
  8  9  1  0  0  0  0
  9 10  1  0  0  0  0
M  END
> <Index>
7364

> <PropertyFieldDistance>
nan

$$$$
8126506
BBcorina  12272117083D 1   1.00000     0.00000 
CORINA 4.3.0 0026  30.10.2019
 10 10  0  0  0  0  0  0  0  0999 V2000
  -37.1743    3.6578  -45.9052 C   0  0  0  0  0  0  0  0  0  0  0  0
  -36.4087    3.1031  -44.7022 C   0  0  0  0  0  0  0  0  0  0  0  0
  -34.9539    3.5762  -44.7606 C   0  0  0  0  0  0  0  0  0  0  0  0
  -34.2095    3.0670  -43.5225 C   0  0  0  0  0  0  0  0  0  0  0  0
  -34.9301    3.5628  -42.2650 C   0  0  0  0  0  0  0  0  0  0  0  0
  -36.3877    3.0902  -42.3041 C   0  0  0  0  0  0  0  0  0  0  0  0
  -36.4282    1.5608  -42.2899 C   0  0  0  0  0  0  0  0  0  0  0  0
  -37.0128    3.5725  -43.4952 O   0  0  0  0  0  0  0  0  0  0  0  0
  -32.8320    3.5772  -43.5329 N   0  0  0  0  0  0  0  0  0  0  0  0
  -32.8093    5.2829  -43.4139 X   0  0  0  0  0  0  0  0  0  0  0  0
  1  2  1  0  0  0  0
  2  3  1  0  0  0  0
  2  8  1  0  0  0  0
  3  4  1  0  0  0  0
  4  5  1  0  0  0  0
  4  9  1  0  0  0  0
  5  6  1  0  0  0  0
  6  7  1  0  0  0  0
  6  8  1  0  0  0  0
  9 10  1  0  0  0  0
M  END
> <Index>
7371

> <PropertyFieldDistance>
nan

$$$$
11946846
BBcorina  12272117083D 1   1.00000     0.00000 
CORINA 4.3.0 0026  30.10.2019
 11 11  0  0  0  0  0  0  0  0999 V2000
  -35.9191    2.6092  -45.9100 C   0  0  0  0  0  0  0  0  0  0  0  0
  -36.4759    2.0111  -44.6164 C   0  0  0  0  0  0  0  0  0  0  0  0
  -35.6597    0.7748  -44.2335 C   0  0  0  0  0  0  0  0  0  0  0  0
  -37.9377    1.6119  -44.8270 C   0  0  0  0  0  0  0  0  0  0  0  0
  -36.3903    3.0070  -43.5400 N   0  0  0  0  0  0  0  0  0  0  0  0
  -37.2538    4.1683  -43.8246 C   0  0  0  0  0  0  0  0  0  0  0  0
  -36.1228    5.0664  -43.3039 C   0  0  0  0  0  0  0  0  0  0  0  0
  -35.2284    3.8945  -43.7322 C   0  0  0  0  0  0  0  0  0  0  0  0
  -34.0811    3.6162  -42.7589 C   0  0  0  0  0  0  0  0  0  0  0  0
  -33.7111    2.1964  -42.8315 N   0  0  0  0  0  0  0  0  0  0  0  0
  -32.2962    1.8847  -41.9233 X   0  0  0  0  0  0  0  0  0  0  0  0
  1  2  1  0  0  0  0
  2  3  1  0  0  0  0
  2  4  1  0  0  0  0
  2  5  1  0  0  0  0
  5  6  1  0  0  0  0
  5  8  1  0  0  0  0
  6  7  1  0  0  0  0
  7  8  1  0  0  0  0
  8  9  1  0  0  0  0
  9 10  1  0  0  0  0
 10 11  1  0  0  0  0
M  END
> <Index>
7373

> <PropertyFieldDistance>
nan

$$$$
13433972
BBcorina  12272117083D 1   1.00000     0.00000 
CORINA 4.3.0 0026  30.10.2019
 11 11  0  0  0  0  0  0  0  0999 V2000
  -34.3907    4.0772  -41.4960 C   0  0  0  0  0  0  0  0  0  0  0  0
  -34.8059    4.7134  -42.8241 C   0  0  0  0  0  0  0  0  0  0  0  0
  -33.8310    5.8295  -43.2049 C   0  0  0  0  0  0  0  0  0  0  0  0
  -36.2483    5.2654  -42.7231 C   0  0  0  0  0  0  0  0  0  0  0  0
  -37.0968    4.1270  -43.3433 C   0  0  0  0  0  0  0  0  0  0  0  0
  -36.2434    3.6271  -44.4515 N   0  0  0  0  0  0  0  0  0  0  0  0
  -36.6374    2.2684  -44.8477 C   0  0  0  0  0  0  0  0  0  0  0  0
  -35.6721    1.7481  -45.9146 C   0  0  0  0  0  0  0  0  0  0  0  0
  -36.1360    0.4412  -46.3991 N   0  0  0  0  0  0  0  0  0  0  0  0
  -34.8579    3.6473  -43.9342 C   0  0  0  0  0  0  0  0  0  0  0  0
  -35.0829   -0.1777  -47.5957 X   0  0  0  0  0  0  0  0  0  0  0  0
  1  2  1  0  0  0  0
  2  3  1  0  0  0  0
  2  4  1  0  0  0  0
  2 10  1  0  0  0  0
  4  5  1  0  0  0  0
  5  6  1  0  0  0  0
  6  7  1  0  0  0  0
  6 10  1  0  0  0  0
  7  8  1  0  0  0  0
  8  9  1  0  0  0  0
  9 11  1  0  0  0  0
M  END
> <Index>
7374

> <PropertyFieldDistance>
nan

$$$$
8166738
BBcorina  12272117083D 1   1.00000     0.00000 
CORINA 4.3.0 0026  30.10.2019
  9  9  0  0  0  0  0  0  0  0999 V2000
  -33.6012    2.4419  -44.0857 C   0  0  0  0  0  0  0  0  0  0  0  0
  -34.3114    2.9258  -42.8199 C   0  0  0  0  0  0  0  0  0  0  0  0
  -35.7185    2.3253  -42.7627 C   0  0  0  0  0  0  0  0  0  0  0  0
  -36.5258    2.8206  -43.9666 C   0  0  0  0  0  0  0  0  0  0  0  0
  -36.5466    4.3522  -43.9582 C   0  0  0  0  0  0  0  0  0  0  0  0
  -35.1075    4.8744  -43.9691 C   0  0  0  0  0  0  0  0  0  0  0  0
  -34.4039    4.3516  -42.8405 O   0  0  0  0  0  0  0  0  0  0  0  0
  -37.9005    2.3100  -43.8801 N   0  0  0  0  0  0  0  0  0  0  0  0
  -38.0221    0.7554  -44.5818 X   0  0  0  0  0  0  0  0  0  0  0  0
  1  2  1  0  0  0  0
  2  3  1  0  0  0  0
  2  7  1  0  0  0  0
  3  4  1  0  0  0  0
  4  5  1  0  0  0  0
  4  8  1  0  0  0  0
  5  6  1  0  0  0  0
  6  7  1  0  0  0  0
  8  9  1  0  0  0  0
M  END
> <Index>
7378

> <PropertyFieldDistance>
nan

$$$$
9582240
BBcorina  12272117083D 1   1.00000     0.00000 
CORINA 4.3.0 0026  30.10.2019
 10 10  0  0  0  0  0  0  0  0999 V2000
  -35.8851    0.2169  -45.0572 N   0  0  0  0  0  0  0  0  0  0  0  0
  -35.5859    1.6340  -45.3031 C   0  0  0  0  0  0  0  0  0  0  0  0
  -36.4552    2.5040  -44.3928 C   0  0  0  0  0  0  0  0  0  0  0  0
  -36.2538    3.9195  -44.7303 N   0  0  0  0  0  0  0  0  0  0  0  0
  -37.0104    4.7924  -43.8175 C   0  0  0  0  0  0  0  0  0  0  0  0
  -36.6192    4.4450  -42.3787 C   0  0  0  0  0  0  0  0  0  0  0  0
  -35.1218    4.4009  -42.2571 C   0  0  0  0  0  0  0  0  0  0  0  0
  -34.3330    4.3193  -43.2850 C   0  0  0  0  0  0  0  0  0  0  0  0
  -34.8280    4.2696  -44.7016 C   0  0  0  0  0  0  0  0  0  0  0  0
  -34.9328   -0.7926  -46.0563 X   0  0  0  0  0  0  0  0  0  0  0  0
  1  2  1  0  0  0  0
  1 10  1  0  0  0  0
  2  3  1  0  0  0  0
  3  4  1  0  0  0  0
  4  5  1  0  0  0  0
  4  9  1  0  0  0  0
  5  6  1  0  0  0  0
  6  7  1  0  0  0  0
  7  8  2  0  0  0  0
  8  9  1  0  0  0  0
M  END
> <Index>
7380

> <PropertyFieldDistance>
nan

$$$$
9163312
BBcorina  12272117083D 1   1.00000     0.00000 
CORINA 4.3.0 0026  30.10.2019
 10 10  0  0  0  0  0  0  0  0999 V2000
  -38.2458    2.6086  -44.5953 C   0  0  0  0  0  0  0  0  0  0  0  0
  -36.8803    3.0269  -44.0464 C   0  0  0  0  0  0  0  0  0  0  0  0
  -36.4452    2.0639  -42.9752 C   0  0  0  0  0  0  0  0  0  0  0  0
  -35.6361    2.7507  -41.8583 C   0  0  0  0  0  0  0  0  0  0  0  0
  -34.6201    3.7790  -42.3970 C   0  0  0  0  0  0  0  0  0  0  0  0
  -33.9081    3.2899  -43.6291 C   0  0  0  0  0  0  0  0  0  0  0  0
  -34.6619    3.8047  -44.8724 C   0  0  0  0  0  0  0  0  0  0  0  0
  -35.8359    3.0020  -45.1812 C   0  0  0  0  0  0  0  0  0  0  0  0
  -32.5313    3.8021  -43.6395 N   0  0  0  0  0  0  0  0  0  0  0  0
  -32.5112    5.5079  -43.5204 X   0  0  0  0  0  0  0  0  0  0  0  0
  1  2  1  0  0  0  0
  2  3  1  0  0  0  0
  2  8  1  0  0  0  0
  3  4  1  0  0  0  0
  4  5  1  0  0  0  0
  5  6  1  0  0  0  0
  6  7  1  0  0  0  0
  6  9  1  0  0  0  0
  7  8  1  0  0  0  0
  9 10  1  0  0  0  0
M  END
> <Index>
7386

> <PropertyFieldDistance>
nan

$$$$
13611030
BBcorina  12272117083D 1   1.00000     0.00000 
CORINA 4.3.0 0026  30.10.2019
 11 11  0  0  0  0  0  0  0  0999 V2000
  -34.8196    4.3184  -42.7482 C   0  0  0  0  0  0  0  0  0  0  0  0
  -34.7988    2.7885  -42.7566 C   0  0  0  0  0  0  0  0  0  0  0  0
  -33.9541    2.2796  -41.5868 C   0  0  0  0  0  0  0  0  0  0  0  0
  -34.2141    2.2981  -44.0534 C   0  0  0  0  0  0  0  0  0  0  0  0
  -34.3946    3.3135  -45.2006 C   0  0  0  0  0  0  0  0  0  0  0  0
  -35.7852    3.9766  -45.2026 C   0  0  0  0  0  0  0  0  0  0  0  0
  -36.8906    2.9971  -44.9148 C   0  0  0  0  0  0  0  0  0  0  0  0
  -37.1932    3.0300  -43.4027 C   0  0  0  0  0  0  0  0  0  0  0  0
  -36.2386    2.2501  -42.6289 C   0  0  0  0  0  0  0  0  0  0  0  0
  -38.0954    3.3715  -45.6673 N   0  0  0  0  0  0  0  0  0  0  0  0
  -38.6148    4.9460  -45.2486 X   0  0  0  0  0  0  0  0  0  0  0  0
  1  2  1  0  0  0  0
  2  3  1  0  0  0  0
  2  4  1  0  0  0  0
  2  9  1  0  0  0  0
  4  5  1  0  0  0  0
  5  6  1  0  0  0  0
  6  7  1  0  0  0  0
  7  8  1  0  0  0  0
  7 10  1  0  0  0  0
  8  9  1  0  0  0  0
 10 11  1  0  0  0  0
M  END
> <Index>
7387

> <PropertyFieldDistance>
nan

$$$$
12864734
BBcorina  12272117083D 1   1.00000     0.00000 
CORINA 4.3.0 0026  30.10.2019
  8  9  0  0  0  0  0  0  0  0999 V2000
  -34.7181    0.8352  -43.8982 N   0  0  0  0  0  0  0  0  0  0  0  0
  -34.3264    2.2130  -43.5725 C   0  0  0  0  0  0  0  0  0  0  0  0
  -34.9409    2.8460  -42.3210 C   0  0  0  0  0  0  0  0  0  0  0  0
  -35.3893    3.2978  -43.7064 C   0  0  0  0  0  0  0  0  0  0  0  0
  -36.7812    3.1990  -44.3400 C   0  0  0  0  0  0  0  0  0  0  0  0
  -36.8021    4.7378  -44.3315 C   0  0  0  0  0  0  0  0  0  0  0  0
  -35.2642    4.6846  -44.3465 C   0  0  0  0  0  0  0  0  0  0  0  0
  -36.0649    0.3443  -42.9658 X   0  0  0  0  0  0  0  0  0  0  0  0
  1  2  1  0  0  0  0
  1  8  1  0  0  0  0
  2  3  1  0  0  0  0
  2  4  1  0  0  0  0
  3  4  1  0  0  0  0
  4  5  1  0  0  0  0
  4  7  1  0  0  0  0
  5  6  1  0  0  0  0
  6  7  1  0  0  0  0
M  END
> <Index>
7388

> <PropertyFieldDistance>
nan

$$$$
13471060
BBcorina  12272117083D 1   1.00000     0.00000 
CORINA 4.3.0 0026  30.10.2019
  8  9  0  0  0  0  0  0  0  0999 V2000
  -34.7181    0.8352  -43.8982 N   0  0  0  0  0  0  0  0  0  0  0  0
  -34.3264    2.2130  -43.5725 C   0  0  0  0  0  0  0  0  0  0  0  0
  -34.9409    2.8460  -42.3210 C   0  0  0  0  0  0  0  0  0  0  0  0
  -35.3893    3.2978  -43.7064 C   0  0  0  0  0  0  0  0  0  0  0  0
  -36.7812    3.1990  -44.3400 C   0  0  0  0  0  0  0  0  0  0  0  0
  -36.8021    4.7378  -44.3315 C   0  0  0  0  0  0  0  0  0  0  0  0
  -35.2642    4.6846  -44.3465 C   0  0  0  0  0  0  0  0  0  0  0  0
  -36.0649    0.3443  -42.9658 X   0  0  0  0  0  0  0  0  0  0  0  0
  1  2  1  0  0  0  0
  1  8  1  0  0  0  0
  2  3  1  0  0  0  0
  2  4  1  0  0  0  0
  3  4  1  0  0  0  0
  4  5  1  0  0  0  0
  4  7  1  0  0  0  0
  5  6  1  0  0  0  0
  6  7  1  0  0  0  0
M  END
> <Index>
7395

> <PropertyFieldDistance>
nan

$$$$
12053438
BBcorina  12272117083D 1   1.00000     0.00000 
CORINA 4.3.0 0026  30.10.2019
  9  9  0  0  0  0  0  0  0  0999 V2000
  -36.1249    2.4384  -44.8398 C   0  0  0  0  0  0  0  0  0  0  0  0
  -36.1055    3.5839  -43.9267 N   0  0  0  0  0  0  0  0  0  0  0  0
  -37.1928    4.2990  -43.5687 C   0  0  0  0  0  0  0  0  0  0  0  0
  -38.3386    4.1275  -43.9265 O   0  0  0  0  0  0  0  0  0  0  0  0
  -36.6716    5.3629  -42.6229 C   0  0  0  0  0  0  0  0  0  0  0  0
  -35.2265    5.0945  -42.5506 N   0  0  0  0  0  0  0  0  0  0  0  0
  -34.9789    4.0775  -43.3169 C   0  0  0  0  0  0  0  0  0  0  0  0
  -33.7235    3.5471  -43.4946 N   0  0  0  0  0  0  0  0  0  0  0  0
  -32.3811    4.2404  -42.6937 X   0  0  0  0  0  0  0  0  0  0  0  0
  1  2  1  0  0  0  0
  2  3  1  0  0  0  0
  2  7  1  0  0  0  0
  3  4  2  0  0  0  0
  3  5  1  0  0  0  0
  5  6  1  0  0  0  0
  6  7  2  0  0  0  0
  7  8  1  0  0  0  0
  8  9  1  0  0  0  0
M  END
> <Index>
7398

> <PropertyFieldDistance>
nan

$$$$
13575892
BBcorina  12272117083D 1   1.00000     0.00000 
CORINA 4.3.0 0026  30.10.2019
 11 11  0  0  0  0  0  0  0  0999 V2000
  -36.1177    3.2864  -40.4505 C   0  0  0  0  0  0  0  0  0  0  0  0
  -36.7736    3.8924  -41.6929 C   0  0  0  0  0  0  0  0  0  0  0  0
  -36.0496    3.3951  -42.9457 C   0  0  0  0  0  0  0  0  0  0  0  0
  -34.6041    3.9330  -42.9566 C   0  0  0  0  0  0  0  0  0  0  0  0
  -33.7315    3.1611  -43.8290 C   0  0  0  0  0  0  0  0  0  0  0  0
  -34.1829    3.2084  -45.3031 C   0  0  0  0  0  0  0  0  0  0  0  0
  -35.3119    2.2311  -45.4890 C   0  0  0  0  0  0  0  0  0  0  0  0
  -36.6951    2.8935  -45.3423 C   0  0  0  0  0  0  0  0  0  0  0  0
  -36.7559    3.8978  -44.1756 C   0  0  0  0  0  0  0  0  0  0  0  0
  -35.2095    1.6357  -46.8280 N   0  0  0  0  0  0  0  0  0  0  0  0
  -35.9368    0.0886  -46.8680 X   0  0  0  0  0  0  0  0  0  0  0  0
  1  2  1  0  0  0  0
  2  3  1  0  0  0  0
  3  4  1  0  0  0  0
  3  9  1  0  0  0  0
  4  5  1  0  0  0  0
  5  6  1  0  0  0  0
  6  7  1  0  0  0  0
  7  8  1  0  0  0  0
  7 10  1  0  0  0  0
  8  9  1  0  0  0  0
 10 11  1  0  0  0  0
M  END
> <Index>
7404

> <PropertyFieldDistance>
nan

$$$$
14784974
BBcorina  12272117083D 1   1.00000     0.00000 
CORINA 4.3.0 0026  30.10.2019
  9  9  0  0  0  0  0  0  0  0999 V2000
  -35.6915    1.4483  -41.9561 N   0  0  0  0  0  0  0  0  0  0  0  0
  -35.8334    2.4774  -42.9948 C   0  0  0  0  0  0  0  0  0  0  0  0
  -35.1756    2.0129  -44.2967 C   0  0  0  0  0  0  0  0  0  0  0  0
  -35.8213    2.4655  -45.5115 C   0  0  0  0  0  0  0  0  0  0  0  0
  -35.7446    4.0120  -45.6227 C   0  0  0  0  0  0  0  0  0  0  0  0
  -36.8774    4.7588  -44.4512 S   0  0  0  0  0  0  0  0  0  0  0  0
  -35.9600    4.9652  -42.8891 C   0  0  0  0  0  0  0  0  0  0  0  0
  -35.0753    3.7304  -42.6005 C   0  0  0  0  0  0  0  0  0  0  0  0
  -34.0434    1.1227  -41.6371 X   0  0  0  0  0  0  0  0  0  0  0  0
  1  2  1  0  0  0  0
  1  9  1  0  0  0  0
  2  3  1  0  0  0  0
  2  8  1  0  0  0  0
  3  4  1  0  0  0  0
  4  5  1  0  0  0  0
  5  6  1  0  0  0  0
  6  7  1  0  0  0  0
  7  8  1  0  0  0  0
M  END
> <Index>
7412

> <PropertyFieldDistance>
nan

$$$$
6814008
BBcorina  12272117083D 1   1.00000     0.00000 
CORINA 4.3.0 0026  30.10.2019
 11 12  0  0  0  0  0  0  0  0999 V2000
  -32.9543    4.3526  -42.5907 N   0  0  0  0  0  0  0  0  0  0  0  0
  -34.1964    4.9259  -43.1258 C   0  0  0  0  0  0  0  0  0  0  0  0
  -35.2737    4.9377  -42.0335 C   0  0  0  0  0  0  0  0  0  0  0  0
  -36.6314    5.2590  -42.6653 C   0  0  0  0  0  0  0  0  0  0  0  0
  -37.0801    4.0825  -43.5397 C   0  0  0  0  0  0  0  0  0  0  0  0
  -35.9828    3.7159  -44.4352 N   0  0  0  0  0  0  0  0  0  0  0  0
  -36.0352    2.9436  -45.5988 N   0  0  0  0  0  0  0  0  0  0  0  0
  -34.8123    2.8849  -46.0640 C   0  0  0  0  0  0  0  0  0  0  0  0
  -34.0060    3.5760  -45.2553 N   0  0  0  0  0  0  0  0  0  0  0  0
  -34.6966    4.0802  -44.2717 C   0  0  0  0  0  0  0  0  0  0  0  0
  -33.1741    2.7141  -42.1537 X   0  0  0  0  0  0  0  0  0  0  0  0
  1  2  1  0  0  0  0
  1 11  1  0  0  0  0
  2  3  1  0  0  0  0
  2 10  1  0  0  0  0
  3  4  1  0  0  0  0
  4  5  1  0  0  0  0
  5  6  1  0  0  0  0
  6  7  1  0  0  0  0
  6 10  1  0  0  0  0
  7  8  2  0  0  0  0
  8  9  1  0  0  0  0
  9 10  2  0  0  0  0
M  END
> <Index>
7422

> <PropertyFieldDistance>
nan

$$$$
13221294
BBcorina  12272117083D 1   1.00000     0.00000 
CORINA 4.3.0 0026  30.10.2019
  9  9  0  0  0  0  0  0  0  0999 V2000
  -33.1118    4.2351  -42.8984 C   0  0  0  0  0  0  0  0  0  0  0  0
  -34.5080    3.6095  -42.9030 C   0  0  0  0  0  0  0  0  0  0  0  0
  -35.1817    3.8682  -44.2532 C   0  0  0  0  0  0  0  0  0  0  0  0
  -36.6012    3.3089  -44.2427 C   0  0  0  0  0  0  0  0  0  0  0  0
  -36.5805    1.7832  -44.2511 C   0  0  0  0  0  0  0  0  0  0  0  0
  -36.0843    1.2600  -42.9006 C   0  0  0  0  0  0  0  0  0  0  0  0
  -34.3720    1.8149  -42.6493 S   0  0  0  0  0  0  0  0  0  0  0  0
  -37.3194    3.7895  -45.4307 N   0  0  0  0  0  0  0  0  0  0  0  0
  -37.9966    5.3350  -45.1538 X   0  0  0  0  0  0  0  0  0  0  0  0
  1  2  1  0  0  0  0
  2  3  1  0  0  0  0
  2  7  1  0  0  0  0
  3  4  1  0  0  0  0
  4  5  1  0  0  0  0
  4  8  1  0  0  0  0
  5  6  1  0  0  0  0
  6  7  1  0  0  0  0
  8  9  1  0  0  0  0
M  END
> <Index>
7423

> <PropertyFieldDistance>
nan

$$$$
12214448
BBcorina  12272117083D 1   1.00000     0.00000 
CORINA 4.3.0 0026  30.10.2019
  9 10  0  0  0  0  0  0  0  0999 V2000
  -34.6570    1.7054  -41.7313 N   0  0  0  0  0  0  0  0  0  0  0  0
  -35.4409    2.2275  -42.8586 C   0  0  0  0  0  0  0  0  0  0  0  0
  -34.5214    2.4525  -44.0645 C   0  0  0  0  0  0  0  0  0  0  0  0
  -35.3882    2.6492  -45.3083 C   0  0  0  0  0  0  0  0  0  0  0  0
  -36.3873    3.7745  -45.0891 C   0  0  0  0  0  0  0  0  0  0  0  0
  -35.9109    5.1163  -44.5487 C   0  0  0  0  0  0  0  0  0  0  0  0
  -36.7699    4.1878  -43.6766 C   0  0  0  0  0  0  0  0  0  0  0  0
  -36.0708    3.5652  -42.4701 C   0  0  0  0  0  0  0  0  0  0  0  0
  -34.6338   -0.0044  -41.7407 X   0  0  0  0  0  0  0  0  0  0  0  0
  1  2  1  0  0  0  0
  1  9  1  0  0  0  0
  2  3  1  0  0  0  0
  2  8  1  0  0  0  0
  3  4  1  0  0  0  0
  4  5  1  0  0  0  0
  5  6  1  0  0  0  0
  5  7  1  0  0  0  0
  6  7  1  0  0  0  0
  7  8  1  0  0  0  0
M  END
> <Index>
7427

> <PropertyFieldDistance>
nan

$$$$
11619134
BBcorina  12272117083D 1   1.00000     0.00000 
CORINA 4.3.0 0026  30.10.2019
  9 10  0  0  0  0  0  0  0  0999 V2000
  -33.4254    4.3324  -44.2012 N   0  0  0  0  0  0  0  0  0  0  0  0
  -34.4072    3.6697  -43.3324 C   0  0  0  0  0  0  0  0  0  0  0  0
  -34.5568    2.2101  -43.7618 C   0  0  0  0  0  0  0  0  0  0  0  0
  -35.6706    1.5669  -42.9276 C   0  0  0  0  0  0  0  0  0  0  0  0
  -37.0181    2.0782  -43.4374 C   0  0  0  0  0  0  0  0  0  0  0  0
  -37.0388    3.6052  -43.4290 C   0  0  0  0  0  0  0  0  0  0  0  0
  -36.5595    4.2931  -44.7166 C   0  0  0  0  0  0  0  0  0  0  0  0
  -35.7395    4.3953  -43.4371 C   0  0  0  0  0  0  0  0  0  0  0  0
  -33.9754    4.3837  -45.8196 X   0  0  0  0  0  0  0  0  0  0  0  0
  1  2  1  0  0  0  0
  1  9  1  0  0  0  0
  2  3  1  0  0  0  0
  2  8  1  0  0  0  0
  3  4  1  0  0  0  0
  4  5  1  0  0  0  0
  5  6  1  0  0  0  0
  6  7  1  0  0  0  0
  6  8  1  0  0  0  0
  7  8  1  0  0  0  0
M  END
> <Index>
7428

> <PropertyFieldDistance>
nan

$$$$
15100786
BBcorina  12272117083D 1   1.00000     0.00000 
CORINA 4.3.0 0026  30.10.2019
 10 10  0  0  0  0  0  0  0  0999 V2000
  -34.0586    2.0481  -44.5228 C   0  0  0  0  0  0  0  0  0  0  0  0
  -34.7747    2.5415  -43.2640 C   0  0  0  0  0  0  0  0  0  0  0  0
  -34.0327    2.0333  -42.0262 C   0  0  0  0  0  0  0  0  0  0  0  0
  -34.7879    4.0717  -43.2548 C   0  0  0  0  0  0  0  0  0  0  0  0
  -35.7511    4.5551  -44.3463 C   0  0  0  0  0  0  0  0  0  0  0  0
  -37.1748    4.1650  -43.9430 C   0  0  0  0  0  0  0  0  0  0  0  0
  -38.0815    4.3924  -45.0762 N   0  0  0  0  0  0  0  0  0  0  0  0
  -37.2225    2.7174  -43.5505 C   0  0  0  0  0  0  0  0  0  0  0  0
  -36.1800    2.0152  -43.2525 C   0  0  0  0  0  0  0  0  0  0  0  0
  -37.6835    3.3764  -46.3929 X   0  0  0  0  0  0  0  0  0  0  0  0
  1  2  1  0  0  0  0
  2  3  1  0  0  0  0
  2  4  1  0  0  0  0
  2  9  1  0  0  0  0
  4  5  1  0  0  0  0
  5  6  1  0  0  0  0
  6  7  1  0  0  0  0
  6  8  1  0  0  0  0
  7 10  1  0  0  0  0
  8  9  2  0  0  0  0
M  END
> <Index>
7435

> <PropertyFieldDistance>
nan

$$$$
10117796
BBcorina  12272117083D 1   1.00000     0.00000 
CORINA 4.3.0 0026  30.10.2019
  7  7  0  0  0  0  0  0  0  0999 V2000
  -36.0383    3.5227  -44.3158 N   0  0  0  0  0  0  0  0  0  0  0  0
  -36.9251    4.6012  -43.8552 C   0  0  0  0  0  0  0  0  0  0  0  0
  -36.6661    4.8619  -42.3679 C   0  0  0  0  0  0  0  0  0  0  0  0
  -35.1805    5.1790  -42.1690 C   0  0  0  0  0  0  0  0  0  0  0  0
  -34.3980    4.1125  -42.7134 O   0  0  0  0  0  0  0  0  0  0  0  0
  -34.6282    3.8772  -44.1041 C   0  0  0  0  0  0  0  0  0  0  0  0
  -36.3353    3.1439  -45.9567 X   0  0  0  0  0  0  0  0  0  0  0  0
  1  2  1  0  0  0  0
  1  6  1  0  0  0  0
  1  7  1  0  0  0  0
  2  3  1  0  0  0  0
  3  4  1  0  0  0  0
  4  5  1  0  0  0  0
  5  6  1  0  0  0  0
M  END
> <Index>
7438

> <PropertyFieldDistance>
nan

$$$$
12851524
BBcorina  12272117083D 1   1.00000     0.00000 
CORINA 4.3.0 0026  30.10.2019
 10 10  0  0  0  0  0  0  0  0999 V2000
  -35.5173    7.8987  -41.0574 C   0  0  0  0  0  0  0  0  0  0  0  0
  -34.9521    6.5487  -41.4168 C   0  0  0  0  0  0  0  0  0  0  0  0
  -34.1775    6.0002  -40.6701 O   0  0  0  0  0  0  0  0  0  0  0  0
  -35.3535    5.8833  -42.7079 C   0  0  0  0  0  0  0  0  0  0  0  0
  -36.6585    5.1099  -42.5008 C   0  0  0  0  0  0  0  0  0  0  0  0
  -37.0291    4.3869  -43.7977 C   0  0  0  0  0  0  0  0  0  0  0  0
  -35.9480    3.4664  -44.1723 N   0  0  0  0  0  0  0  0  0  0  0  0
  -34.6958    4.1916  -44.4226 C   0  0  0  0  0  0  0  0  0  0  0  0
  -34.2559    4.9088  -43.1442 C   0  0  0  0  0  0  0  0  0  0  0  0
  -36.3899    2.5211  -45.5270 X   0  0  0  0  0  0  0  0  0  0  0  0
  1  2  1  0  0  0  0
  2  3  2  0  0  0  0
  2  4  1  0  0  0  0
  4  5  1  0  0  0  0
  4  9  1  0  0  0  0
  5  6  1  0  0  0  0
  6  7  1  0  0  0  0
  7  8  1  0  0  0  0
  7 10  1  0  0  0  0
  8  9  1  0  0  0  0
M  END
> <Index>
7439

> <PropertyFieldDistance>
nan

$$$$
16892962
BBcorina  12272117083D 1   1.00000     0.00000 
CORINA 4.3.0 0026  30.10.2019
  9  9  0  0  0  0  0  0  0  0999 V2000
  -37.5649    5.3169  -41.4216 C   0  0  0  0  0  0  0  0  0  0  0  0
  -36.6293    5.2502  -42.6304 C   0  0  0  0  0  0  0  0  0  0  0  0
  -36.9724    4.0211  -43.4763 C   0  0  0  0  0  0  0  0  0  0  0  0
  -36.0216    3.9203  -44.5930 N   0  0  0  0  0  0  0  0  0  0  0  0
  -34.6419    3.8204  -44.0951 C   0  0  0  0  0  0  0  0  0  0  0  0
  -34.3222    5.0515  -43.2429 C   0  0  0  0  0  0  0  0  0  0  0  0
  -32.9157    4.9154  -42.6561 C   0  0  0  0  0  0  0  0  0  0  0  0
  -35.2752    5.1506  -42.1812 O   0  0  0  0  0  0  0  0  0  0  0  0
  -36.4046    2.5973  -45.6065 X   0  0  0  0  0  0  0  0  0  0  0  0
  1  2  1  0  0  0  0
  2  3  1  0  0  0  0
  2  8  1  0  0  0  0
  3  4  1  0  0  0  0
  4  5  1  0  0  0  0
  4  9  1  0  0  0  0
  5  6  1  0  0  0  0
  6  7  1  0  0  0  0
  6  8  1  0  0  0  0
M  END
> <Index>
7440

> <PropertyFieldDistance>
nan

$$$$
6814150
BBcorina  12272117083D 1   1.00000     0.00000 
CORINA 4.3.0 0026  30.10.2019
  9 10  0  0  0  0  0  0  0  0999 V2000
  -35.9710    3.7318  -44.4238 N   0  0  0  0  0  0  0  0  0  0  0  0
  -36.9375    4.7039  -43.8470 C   0  0  0  0  0  0  0  0  0  0  0  0
  -36.7847    4.5298  -42.3184 C   0  0  0  0  0  0  0  0  0  0  0  0
  -35.3554    3.9823  -42.1238 C   0  0  0  0  0  0  0  0  0  0  0  0
  -34.7744    3.8753  -43.5525 C   0  0  0  0  0  0  0  0  0  0  0  0
  -34.1197    5.2228  -43.8960 C   0  0  0  0  0  0  0  0  0  0  0  0
  -35.0887    6.3516  -43.5324 C   0  0  0  0  0  0  0  0  0  0  0  0
  -36.4398    6.1105  -44.2118 C   0  0  0  0  0  0  0  0  0  0  0  0
  -36.5902    2.1392  -44.3573 X   0  0  0  0  0  0  0  0  0  0  0  0
  1  2  1  0  0  0  0
  1  5  1  0  0  0  0
  1  9  1  0  0  0  0
  2  3  1  0  0  0  0
  2  8  1  0  0  0  0
  3  4  1  0  0  0  0
  4  5  1  0  0  0  0
  5  6  1  0  0  0  0
  6  7  1  0  0  0  0
  7  8  1  0  0  0  0
M  END
> <Index>
7441

> <PropertyFieldDistance>
nan

$$$$
6546958
BBcorina  12272117083D 1   1.00000     0.00000 
CORINA 4.3.0 0026  30.10.2019
  8  8  0  0  0  0  0  0  0  0999 V2000
  -32.8568    5.1116  -41.6072 C   0  0  0  0  0  0  0  0  0  0  0  0
  -34.0462    5.5089  -42.2924 O   0  0  0  0  0  0  0  0  0  0  0  0
  -34.9963    4.4557  -42.4657 C   0  0  0  0  0  0  0  0  0  0  0  0
  -36.4271    5.0338  -42.5595 C   0  0  0  0  0  0  0  0  0  0  0  0
  -37.0854    4.1536  -43.6516 C   0  0  0  0  0  0  0  0  0  0  0  0
  -35.9828    3.9350  -44.6224 N   0  0  0  0  0  0  0  0  0  0  0  0
  -34.7625    3.7407  -43.8095 C   0  0  0  0  0  0  0  0  0  0  0  0
  -36.2908    2.5675  -45.6018 X   0  0  0  0  0  0  0  0  0  0  0  0
  1  2  1  0  0  0  0
  2  3  1  0  0  0  0
  3  4  1  0  0  0  0
  3  7  1  0  0  0  0
  4  5  1  0  0  0  0
  5  6  1  0  0  0  0
  6  7  1  0  0  0  0
  6  8  1  0  0  0  0
M  END
> <Index>
7442

> <PropertyFieldDistance>
nan

$$$$
16924514
BBcorina  12272117083D 1   1.00000     0.00000 
CORINA 4.3.0 0026  30.10.2019
  9  9  0  0  0  0  0  0  0  0999 V2000
  -37.5649    5.3169  -41.4216 C   0  0  0  0  0  0  0  0  0  0  0  0
  -36.6293    5.2502  -42.6304 C   0  0  0  0  0  0  0  0  0  0  0  0
  -36.9724    4.0211  -43.4763 C   0  0  0  0  0  0  0  0  0  0  0  0
  -36.0216    3.9203  -44.5930 N   0  0  0  0  0  0  0  0  0  0  0  0
  -34.6419    3.8204  -44.0951 C   0  0  0  0  0  0  0  0  0  0  0  0
  -34.3222    5.0515  -43.2429 C   0  0  0  0  0  0  0  0  0  0  0  0
  -32.9157    4.9154  -42.6561 C   0  0  0  0  0  0  0  0  0  0  0  0
  -35.2752    5.1506  -42.1812 O   0  0  0  0  0  0  0  0  0  0  0  0
  -36.4046    2.5973  -45.6065 X   0  0  0  0  0  0  0  0  0  0  0  0
  1  2  1  0  0  0  0
  2  3  1  0  0  0  0
  2  8  1  0  0  0  0
  3  4  1  0  0  0  0
  4  5  1  0  0  0  0
  4  9  1  0  0  0  0
  5  6  1  0  0  0  0
  6  7  1  0  0  0  0
  6  8  1  0  0  0  0
M  END
> <Index>
7444

> <PropertyFieldDistance>
nan

$$$$
10548286
BBcorina  12272117083D 1   1.00000     0.00000 
CORINA 4.3.0 0026  30.10.2019
 10 10  0  0  0  0  0  0  0  0999 V2000
  -36.4812    3.5381  -41.5134 C   0  0  0  0  0  0  0  0  0  0  0  0
  -36.5702    4.8249  -42.3363 C   0  0  0  0  0  0  0  0  0  0  0  0
  -37.0095    4.4890  -43.7634 C   0  0  0  0  0  0  0  0  0  0  0  0
  -36.0087    3.6126  -44.3879 N   0  0  0  0  0  0  0  0  0  0  0  0
  -34.6918    4.2640  -44.4241 C   0  0  0  0  0  0  0  0  0  0  0  0
  -34.2525    4.6000  -42.9970 C   0  0  0  0  0  0  0  0  0  0  0  0
  -32.9002    5.3146  -43.0336 C   0  0  0  0  0  0  0  0  0  0  0  0
  -35.2533    5.4763  -42.3725 N   0  0  0  0  0  0  0  0  0  0  0  0
  -34.8301    5.8830  -41.0259 C   0  0  0  0  0  0  0  0  0  0  0  0
  -36.5015    3.1392  -45.9554 X   0  0  0  0  0  0  0  0  0  0  0  0
  1  2  1  0  0  0  0
  2  3  1  0  0  0  0
  2  8  1  0  0  0  0
  3  4  1  0  0  0  0
  4  5  1  0  0  0  0
  4 10  1  0  0  0  0
  5  6  1  0  0  0  0
  6  7  1  0  0  0  0
  6  8  1  0  0  0  0
  8  9  1  0  0  0  0
M  END
> <Index>
7445

> <PropertyFieldDistance>
nan

$$$$
15361562
BBcorina  12272117083D 1   1.00000     0.00000 
CORINA 4.3.0 0026  30.10.2019
 11 11  0  0  0  0  0  0  0  0999 V2000
  -35.8904    3.4640  -44.0198 N   0  0  0  0  0  0  0  0  0  0  0  0
  -37.0252    4.4236  -43.8148 C   0  0  0  0  0  0  0  0  0  0  0  0
  -36.9958    5.0288  -42.4213 C   0  0  0  0  0  0  0  0  0  0  0  0
  -37.1556    6.5513  -42.5192 C   0  0  0  0  0  0  0  0  0  0  0  0
  -36.2004    7.2271  -41.5344 C   0  0  0  0  0  0  0  0  0  0  0  0
  -35.0708    7.9167  -42.3008 C   0  0  0  0  0  0  0  0  0  0  0  0
  -33.7968    7.0750  -42.2129 C   0  0  0  0  0  0  0  0  0  0  0  0
  -33.5916    6.3098  -43.5210 C   0  0  0  0  0  0  0  0  0  0  0  0
  -33.9296    4.8292  -43.3030 C   0  0  0  0  0  0  0  0  0  0  0  0
  -34.7463    4.3180  -44.4788 C   0  0  0  0  0  0  0  0  0  0  0  0
  -35.4632    2.8485  -42.4550 X   0  0  0  0  0  0  0  0  0  0  0  0
  1  2  1  0  0  0  0
  1 10  1  0  0  0  0
  1 11  1  0  0  0  0
  2  3  1  0  0  0  0
  3  4  1  0  0  0  0
  4  5  1  0  0  0  0
  5  6  1  0  0  0  0
  6  7  1  0  0  0  0
  7  8  1  0  0  0  0
  8  9  1  0  0  0  0
  9 10  1  0  0  0  0
M  END
> <Index>
7446

> <PropertyFieldDistance>
nan

$$$$
16608332
BBcorina  12272117083D 1   1.00000     0.00000 
CORINA 4.3.0 0026  30.10.2019
 10 11  0  0  0  0  0  0  0  0999 V2000
  -35.9210    4.3284  -44.3848 N   0  0  0  0  0  0  0  0  0  0  0  0
  -37.1383    3.9575  -43.6199 C   0  0  0  0  0  0  0  0  0  0  0  0
  -37.3225    4.8421  -42.3872 C   0  0  0  0  0  0  0  0  0  0  0  0
  -36.0374    4.8660  -41.5437 C   0  0  0  0  0  0  0  0  0  0  0  0
  -34.9486    5.2859  -42.4185 N   0  0  0  0  0  0  0  0  0  0  0  0
  -33.6152    5.3772  -41.8034 C   0  0  0  0  0  0  0  0  0  0  0  0
  -32.6493    5.3682  -43.0179 C   0  0  0  0  0  0  0  0  0  0  0  0
  -33.4398    4.6662  -44.1513 C   0  0  0  0  0  0  0  0  0  0  0  0
  -34.7657    4.2694  -43.4945 C   0  0  0  0  0  0  0  0  0  0  0  0
  -35.6935    3.3260  -45.7513 X   0  0  0  0  0  0  0  0  0  0  0  0
  1  2  1  0  0  0  0
  1  9  1  0  0  0  0
  1 10  1  0  0  0  0
  2  3  1  0  0  0  0
  3  4  1  0  0  0  0
  4  5  1  0  0  0  0
  5  6  1  0  0  0  0
  5  9  1  0  0  0  0
  6  7  1  0  0  0  0
  7  8  1  0  0  0  0
  8  9  1  0  0  0  0
M  END
> <Index>
7447

> <PropertyFieldDistance>
nan

$$$$
7968350
BBcorina  12272117083D 1   1.00000     0.00000 
CORINA 4.3.0 0026  30.10.2019
  9  9  0  0  0  0  0  0  0  0999 V2000
  -34.9467    6.5602  -41.3976 C   0  0  0  0  0  0  0  0  0  0  0  0
  -35.3535    5.8832  -42.7080 C   0  0  0  0  0  0  0  0  0  0  0  0
  -36.6587    5.1099  -42.5007 C   0  0  0  0  0  0  0  0  0  0  0  0
  -37.0290    4.3869  -43.7977 C   0  0  0  0  0  0  0  0  0  0  0  0
  -35.9480    3.4664  -44.1723 N   0  0  0  0  0  0  0  0  0  0  0  0
  -34.6958    4.1916  -44.4226 C   0  0  0  0  0  0  0  0  0  0  0  0
  -34.2558    4.9088  -43.1443 C   0  0  0  0  0  0  0  0  0  0  0  0
  -32.9631    5.6821  -43.4116 C   0  0  0  0  0  0  0  0  0  0  0  0
  -36.3899    2.5209  -45.5269 X   0  0  0  0  0  0  0  0  0  0  0  0
  1  2  1  0  0  0  0
  2  3  1  0  0  0  0
  2  7  1  0  0  0  0
  3  4  1  0  0  0  0
  4  5  1  0  0  0  0
  5  6  1  0  0  0  0
  5  9  1  0  0  0  0
  6  7  1  0  0  0  0
  7  8  1  0  0  0  0
M  END
> <Index>
7449

> <PropertyFieldDistance>
nan

$$$$
7692764
BBcorina  12272117083D 1   1.00000     0.00000 
CORINA 4.3.0 0026  30.10.2019
 10 10  0  0  0  0  0  0  0  0999 V2000
  -40.2519    2.6298  -44.8251 C   0  0  0  0  0  0  0  0  0  0  0  0
  -38.9858    3.4694  -45.0061 C   0  0  0  0  0  0  0  0  0  0  0  0
  -39.3206    4.7060  -45.6390 O   0  0  0  0  0  0  0  0  0  0  0  0
  -38.3598    3.7497  -43.6383 C   0  0  0  0  0  0  0  0  0  0  0  0
  -37.0294    4.4814  -43.8266 C   0  0  0  0  0  0  0  0  0  0  0  0
  -36.4461    4.8706  -42.4556 C   0  0  0  0  0  0  0  0  0  0  0  0
  -35.0709    4.1677  -42.3876 C   0  0  0  0  0  0  0  0  0  0  0  0
  -34.7318    3.9246  -43.8798 C   0  0  0  0  0  0  0  0  0  0  0  0
  -36.0504    3.5865  -44.4810 N   0  0  0  0  0  0  0  0  0  0  0  0
  -36.0373    3.8262  -46.1741 X   0  0  0  0  0  0  0  0  0  0  0  0
  1  2  1  0  0  0  0
  2  3  1  0  0  0  0
  2  4  1  0  0  0  0
  4  5  1  0  0  0  0
  5  6  1  0  0  0  0
  5  9  1  0  0  0  0
  6  7  1  0  0  0  0
  7  8  1  0  0  0  0
  8  9  1  0  0  0  0
  9 10  1  0  0  0  0
M  END
> <Index>
7451

> <PropertyFieldDistance>
nan

$$$$
11982910
BBcorina  12272117083D 1   1.00000     0.00000 
CORINA 4.3.0 0026  30.10.2019
 10 10  0  0  0  0  0  0  0  0999 V2000
  -36.4860    4.1530  -41.4536 O   0  0  0  0  0  0  0  0  0  0  0  0
  -36.6587    5.1099  -42.5007 C   0  0  0  0  0  0  0  0  0  0  0  0
  -37.0290    4.3869  -43.7977 C   0  0  0  0  0  0  0  0  0  0  0  0
  -35.9480    3.4664  -44.1723 N   0  0  0  0  0  0  0  0  0  0  0  0
  -34.6958    4.1917  -44.4226 C   0  0  0  0  0  0  0  0  0  0  0  0
  -34.2559    4.9088  -43.1443 C   0  0  0  0  0  0  0  0  0  0  0  0
  -33.0481    5.6309  -43.3931 O   0  0  0  0  0  0  0  0  0  0  0  0
  -35.3534    5.8832  -42.7080 C   0  0  0  0  0  0  0  0  0  0  0  0
  -34.9726    6.5143  -41.4837 O   0  0  0  0  0  0  0  0  0  0  0  0
  -36.3899    2.5210  -45.5270 X   0  0  0  0  0  0  0  0  0  0  0  0
  1  2  1  0  0  0  0
  2  3  1  0  0  0  0
  2  8  1  0  0  0  0
  3  4  1  0  0  0  0
  4  5  1  0  0  0  0
  4 10  1  0  0  0  0
  5  6  1  0  0  0  0
  6  7  1  0  0  0  0
  6  8  1  0  0  0  0
  8  9  1  0  0  0  0
M  END
> <Index>
7453

> <PropertyFieldDistance>
nan

$$$$
9195406
BBcorina  12272117083D 1   1.00000     0.00000 
CORINA 4.3.0 0026  30.10.2019
 11 11  0  0  0  0  0  0  0  0999 V2000
  -35.5102    0.0721  -45.3189 C   0  0  0  0  0  0  0  0  0  0  0  0
  -35.2555    1.4822  -45.0145 N   0  0  0  0  0  0  0  0  0  0  0  0
  -36.2667    2.2788  -44.6153 C   0  0  0  0  0  0  0  0  0  0  0  0
  -37.4053    1.8526  -44.5964 O   0  0  0  0  0  0  0  0  0  0  0  0
  -36.0166    3.5495  -44.2424 N   0  0  0  0  0  0  0  0  0  0  0  0
  -37.0874    4.4037  -43.7065 C   0  0  0  0  0  0  0  0  0  0  0  0
  -36.6071    5.0157  -42.3863 C   0  0  0  0  0  0  0  0  0  0  0  0
  -35.3220    5.6934  -42.6033 N   0  0  0  0  0  0  0  0  0  0  0  0
  -34.2808    4.7423  -43.0145 C   0  0  0  0  0  0  0  0  0  0  0  0
  -34.6644    4.1171  -44.3547 C   0  0  0  0  0  0  0  0  0  0  0  0
  -34.8436    6.5609  -41.2094 X   0  0  0  0  0  0  0  0  0  0  0  0
  1  2  1  0  0  0  0
  2  3  1  0  0  0  0
  3  4  2  0  0  0  0
  3  5  1  0  0  0  0
  5  6  1  0  0  0  0
  5 10  1  0  0  0  0
  6  7  1  0  0  0  0
  7  8  1  0  0  0  0
  8  9  1  0  0  0  0
  8 11  1  0  0  0  0
  9 10  1  0  0  0  0
M  END
> <Index>
7454

> <PropertyFieldDistance>
nan

$$$$
9744076
BBcorina  12272117083D 1   1.00000     0.00000 
CORINA 4.3.0 0026  30.10.2019
 11 11  0  0  0  0  0  0  0  0999 V2000
  -35.2497    5.7277  -42.7076 N   0  0  0  0  0  0  0  0  0  0  0  0
  -36.5085    5.0810  -42.3116 C   0  0  0  0  0  0  0  0  0  0  0  0
  -37.0937    4.3323  -43.5114 C   0  0  0  0  0  0  0  0  0  0  0  0
  -36.1213    3.3384  -43.9870 N   0  0  0  0  0  0  0  0  0  0  0  0
  -36.6764    2.5458  -45.0923 C   0  0  0  0  0  0  0  0  0  0  0  0
  -35.5665    1.7022  -45.7226 C   0  0  0  0  0  0  0  0  0  0  0  0
  -36.1359    0.8891  -46.8565 C   0  0  0  0  0  0  0  0  0  0  0  0
  -35.6094    0.9749  -48.0530 C   0  0  0  0  0  0  0  0  0  0  0  0
  -34.8625    3.9851  -44.3830 C   0  0  0  0  0  0  0  0  0  0  0  0
  -34.2773    4.7339  -43.1833 C   0  0  0  0  0  0  0  0  0  0  0  0
  -34.6035    6.6503  -41.4210 X   0  0  0  0  0  0  0  0  0  0  0  0
  1  2  1  0  0  0  0
  1 10  1  0  0  0  0
  1 11  1  0  0  0  0
  2  3  1  0  0  0  0
  3  4  1  0  0  0  0
  4  5  1  0  0  0  0
  4  9  1  0  0  0  0
  5  6  1  0  0  0  0
  6  7  1  0  0  0  0
  7  8  2  0  0  0  0
  9 10  1  0  0  0  0
M  END
> <Index>
7459

> <PropertyFieldDistance>
nan

$$$$
7692674
BBcorina  12272117083D 1   1.00000     0.00000 
CORINA 4.3.0 0026  30.10.2019
 10 10  0  0  0  0  0  0  0  0999 V2000
  -36.4764    4.1853  -43.2280 C   0  0  0  0  0  0  0  0  0  0  0  0
  -36.0173    3.5926  -44.4913 N   0  0  0  0  0  0  0  0  0  0  0  0
  -36.3933    2.1751  -44.5752 C   0  0  0  0  0  0  0  0  0  0  0  0
  -36.1059    1.6538  -45.9846 C   0  0  0  0  0  0  0  0  0  0  0  0
  -34.6979    1.6547  -46.2289 O   0  0  0  0  0  0  0  0  0  0  0  0
  -36.6676    0.2302  -46.1449 C   0  0  0  0  0  0  0  0  0  0  0  0
  -37.7087    0.2926  -47.2816 C   0  0  0  0  0  0  0  0  0  0  0  0
  -37.2871    1.5281  -48.1153 C   0  0  0  0  0  0  0  0  0  0  0  0
  -36.8241    2.5322  -47.0297 C   0  0  0  0  0  0  0  0  0  0  0  0
  -34.3297    3.7914  -44.6838 X   0  0  0  0  0  0  0  0  0  0  0  0
  1  2  1  0  0  0  0
  2  3  1  0  0  0  0
  2 10  1  0  0  0  0
  3  4  1  0  0  0  0
  4  5  1  0  0  0  0
  4  6  1  0  0  0  0
  4  9  1  0  0  0  0
  6  7  1  0  0  0  0
  7  8  1  0  0  0  0
  8  9  1  0  0  0  0
M  END
> <Index>
7462

> <PropertyFieldDistance>
nan

$$$$
11573050
BBcorina  12272117083D 1   1.00000     0.00000 
CORINA 4.3.0 0026  30.10.2019
  9  9  0  0  0  0  0  0  0  0999 V2000
  -35.9480    3.4664  -44.1723 N   0  0  0  0  0  0  0  0  0  0  0  0
  -37.0291    4.3869  -43.7977 C   0  0  0  0  0  0  0  0  0  0  0  0
  -36.6585    5.1099  -42.5008 C   0  0  0  0  0  0  0  0  0  0  0  0
  -35.3535    5.8833  -42.7079 C   0  0  0  0  0  0  0  0  0  0  0  0
  -34.2559    4.9088  -43.1442 C   0  0  0  0  0  0  0  0  0  0  0  0
  -34.6958    4.1916  -44.4226 C   0  0  0  0  0  0  0  0  0  0  0  0
  -34.9614    6.5332  -41.4468 C   0  0  0  0  0  0  0  0  0  0  0  0
  -34.6487    7.0517  -40.4410 C   0  0  0  0  0  0  0  0  0  0  0  0
  -36.3899    2.5211  -45.5270 X   0  0  0  0  0  0  0  0  0  0  0  0
  1  2  1  0  0  0  0
  1  6  1  0  0  0  0
  1  9  1  0  0  0  0
  2  3  1  0  0  0  0
  3  4  1  0  0  0  0
  4  5  1  0  0  0  0
  4  7  1  0  0  0  0
  5  6  1  0  0  0  0
  7  8  3  0  0  0  0
M  END
> <Index>
7465

> <PropertyFieldDistance>
nan

$$$$
13944176
BBcorina  12272117083D 1   1.00000     0.00000 
CORINA 4.3.0 0026  30.10.2019
 10 10  0  0  0  0  0  0  0  0999 V2000
  -37.5620    6.2848  -42.1915 C   0  0  0  0  0  0  0  0  0  0  0  0
  -36.6721    5.0655  -42.4410 C   0  0  0  0  0  0  0  0  0  0  0  0
  -36.9614    4.0006  -41.3811 C   0  0  0  0  0  0  0  0  0  0  0  0
  -36.9705    4.4946  -43.8286 C   0  0  0  0  0  0  0  0  0  0  0  0
  -35.9589    3.4743  -44.1476 N   0  0  0  0  0  0  0  0  0  0  0  0
  -34.6488    4.1065  -44.3528 C   0  0  0  0  0  0  0  0  0  0  0  0
  -34.3373    5.0223  -43.2030 C   0  0  0  0  0  0  0  0  0  0  0  0
  -33.1898    5.3786  -43.0385 O   0  0  0  0  0  0  0  0  0  0  0  0
  -35.2700    5.4633  -42.3546 N   0  0  0  0  0  0  0  0  0  0  0  0
  -36.4201    2.5613  -45.5178 X   0  0  0  0  0  0  0  0  0  0  0  0
  1  2  1  0  0  0  0
  2  3  1  0  0  0  0
  2  4  1  0  0  0  0
  2  9  1  0  0  0  0
  4  5  1  0  0  0  0
  5  6  1  0  0  0  0
  5 10  1  0  0  0  0
  6  7  1  0  0  0  0
  7  8  2  0  0  0  0
  7  9  1  0  0  0  0
M  END
> <Index>
7466

> <PropertyFieldDistance>
nan

$$$$
6338236
BBcorina  12272117083D 1   1.00000     0.00000 
CORINA 4.3.0 0026  30.10.2019
  8  8  0  0  0  0  0  0  0  0999 V2000
  -37.0189    6.1909  -41.9590 C   0  0  0  0  0  0  0  0  0  0  0  0
  -36.4398    4.8672  -42.4624 C   0  0  0  0  0  0  0  0  0  0  0  0
  -37.0524    4.4783  -43.8311 C   0  0  0  0  0  0  0  0  0  0  0  0
  -36.0426    3.6037  -44.4646 N   0  0  0  0  0  0  0  0  0  0  0  0
  -34.7228    3.9140  -43.8849 C   0  0  0  0  0  0  0  0  0  0  0  0
  -34.9362    5.0165  -42.8264 C   0  0  0  0  0  0  0  0  0  0  0  0
  -34.0558    4.7668  -41.6003 C   0  0  0  0  0  0  0  0  0  0  0  0
  -36.0306    3.8111  -46.1619 X   0  0  0  0  0  0  0  0  0  0  0  0
  1  2  1  0  0  0  0
  2  3  1  0  0  0  0
  2  6  1  0  0  0  0
  3  4  1  0  0  0  0
  4  5  1  0  0  0  0
  4  8  1  0  0  0  0
  5  6  1  0  0  0  0
  6  7  1  0  0  0  0
M  END
> <Index>
7467

> <PropertyFieldDistance>
nan

$$$$
15140092
BBcorina  12272117083D 1   1.00000     0.00000 
CORINA 4.3.0 0026  30.10.2019
  8  8  0  0  0  0  0  0  0  0999 V2000
  -36.9807    6.1035  -41.9923 O   0  0  0  0  0  0  0  0  0  0  0  0
  -36.4398    4.8672  -42.4624 C   0  0  0  0  0  0  0  0  0  0  0  0
  -37.0524    4.4783  -43.8311 C   0  0  0  0  0  0  0  0  0  0  0  0
  -36.0426    3.6037  -44.4646 N   0  0  0  0  0  0  0  0  0  0  0  0
  -34.7228    3.9140  -43.8849 C   0  0  0  0  0  0  0  0  0  0  0  0
  -34.9362    5.0165  -42.8264 C   0  0  0  0  0  0  0  0  0  0  0  0
  -34.1138    4.7833  -41.6813 O   0  0  0  0  0  0  0  0  0  0  0  0
  -36.0306    3.8111  -46.1619 X   0  0  0  0  0  0  0  0  0  0  0  0
  1  2  1  0  0  0  0
  2  3  1  0  0  0  0
  2  6  1  0  0  0  0
  3  4  1  0  0  0  0
  4  5  1  0  0  0  0
  4  8  1  0  0  0  0
  5  6  1  0  0  0  0
  6  7  1  0  0  0  0
M  END
> <Index>
7468

> <PropertyFieldDistance>
nan

$$$$
17039376
BBcorina  12272117083D 1   1.00000     0.00000 
CORINA 4.3.0 0026  30.10.2019
  7  8  0  0  0  0  0  0  0  0999 V2000
  -35.9502    3.4728  -44.2250 N   0  0  0  0  0  0  0  0  0  0  0  0
  -37.1564    4.1787  -43.7220 C   0  0  0  0  0  0  0  0  0  0  0  0
  -36.5799    5.1632  -42.6737 C   0  0  0  0  0  0  0  0  0  0  0  0
  -35.2489    5.6138  -43.3173 C   0  0  0  0  0  0  0  0  0  0  0  0
  -34.0088    4.7466  -43.0955 C   0  0  0  0  0  0  0  0  0  0  0  0
  -34.8920    4.5023  -44.3215 C   0  0  0  0  0  0  0  0  0  0  0  0
  -36.2497    2.7571  -45.7488 X   0  0  0  0  0  0  0  0  0  0  0  0
  1  2  1  0  0  0  0
  1  6  1  0  0  0  0
  1  7  1  0  0  0  0
  2  3  1  0  0  0  0
  3  4  1  0  0  0  0
  4  5  1  0  0  0  0
  4  6  1  0  0  0  0
  5  6  1  0  0  0  0
M  END
> <Index>
7469

> <PropertyFieldDistance>
nan

$$$$
18241320
BBcorina  12272117083D 1   1.00000     0.00000 
CORINA 4.3.0 0026  30.10.2019
 11 12  0  0  0  0  0  0  0  0999 V2000
  -35.3029    2.2303  -45.8134 C   0  0  0  0  0  0  0  0  0  0  0  0
  -36.3967    3.1468  -45.2615 C   0  0  0  0  0  0  0  0  0  0  0  0
  -37.7613    2.6735  -45.7662 C   0  0  0  0  0  0  0  0  0  0  0  0
  -36.3761    3.1046  -43.7932 N   0  0  0  0  0  0  0  0  0  0  0  0
  -37.2148    4.2307  -43.2046 C   0  0  0  0  0  0  0  0  0  0  0  0
  -36.2156    5.0285  -42.3107 C   0  0  0  0  0  0  0  0  0  0  0  0
  -35.2791    3.8662  -41.8216 C   0  0  0  0  0  0  0  0  0  0  0  0
  -34.9918    3.3291  -43.2694 C   0  0  0  0  0  0  0  0  0  0  0  0
  -34.5359    4.6545  -43.9549 C   0  0  0  0  0  0  0  0  0  0  0  0
  -35.3221    5.7222  -43.2912 N   0  0  0  0  0  0  0  0  0  0  0  0
  -36.2361    6.6093  -44.4321 X   0  0  0  0  0  0  0  0  0  0  0  0
  1  2  1  0  0  0  0
  2  3  1  0  0  0  0
  2  4  1  0  0  0  0
  4  5  1  0  0  0  0
  4  8  1  0  0  0  0
  5  6  1  0  0  0  0
  6  7  1  0  0  0  0
  6 10  1  0  0  0  0
  7  8  1  0  0  0  0
  8  9  1  0  0  0  0
  9 10  1  0  0  0  0
 10 11  1  0  0  0  0
M  END
> <Index>
7471

> <PropertyFieldDistance>
nan

$$$$
11972996
BBcorina  12272117083D 1   1.00000     0.00000 
CORINA 4.3.0 0026  30.10.2019
 10 10  0  0  0  0  0  0  0  0999 V2000
  -35.9480    3.4664  -44.1723 N   0  0  0  0  0  0  0  0  0  0  0  0
  -37.0290    4.3869  -43.7977 C   0  0  0  0  0  0  0  0  0  0  0  0
  -36.6587    5.1099  -42.5007 C   0  0  0  0  0  0  0  0  0  0  0  0
  -35.3534    5.8831  -42.7079 C   0  0  0  0  0  0  0  0  0  0  0  0
  -34.2558    4.9088  -43.1443 C   0  0  0  0  0  0  0  0  0  0  0  0
  -32.9630    5.6821  -43.4116 C   0  0  0  0  0  0  0  0  0  0  0  0
  -31.8523    4.7118  -43.7214 C   0  0  0  0  0  0  0  0  0  0  0  0
  -31.1727    4.8281  -44.8354 C   0  0  0  0  0  0  0  0  0  0  0  0
  -34.6959    4.1916  -44.4227 C   0  0  0  0  0  0  0  0  0  0  0  0
  -36.3899    2.5210  -45.5270 X   0  0  0  0  0  0  0  0  0  0  0  0
  1  2  1  0  0  0  0
  1  9  1  0  0  0  0
  1 10  1  0  0  0  0
  2  3  1  0  0  0  0
  3  4  1  0  0  0  0
  4  5  1  0  0  0  0
  5  6  1  0  0  0  0
  5  9  1  0  0  0  0
  6  7  1  0  0  0  0
  7  8  2  0  0  0  0
M  END
> <Index>
7472

> <PropertyFieldDistance>
nan

$$$$
9433654
BBcorina  12272117083D 1   1.00000     0.00000 
CORINA 4.3.0 0026  30.10.2019
 10 11  0  0  0  0  0  0  0  0999 V2000
  -36.3223    2.2741  -44.8896 C   0  0  0  0  0  0  0  0  0  0  0  0
  -36.0775    3.6554  -44.4534 N   0  0  0  0  0  0  0  0  0  0  0  0
  -37.0699    4.0744  -43.4311 C   0  0  0  0  0  0  0  0  0  0  0  0
  -36.4061    5.2625  -42.7043 C   0  0  0  0  0  0  0  0  0  0  0  0
  -36.6269    5.1031  -41.1857 C   0  0  0  0  0  0  0  0  0  0  0  0
  -35.3086    5.4169  -40.5778 N   0  0  0  0  0  0  0  0  0  0  0  0
  -34.3251    4.7868  -41.4949 C   0  0  0  0  0  0  0  0  0  0  0  0
  -34.8822    5.0613  -42.9223 C   0  0  0  0  0  0  0  0  0  0  0  0
  -34.7692    3.7707  -43.7600 C   0  0  0  0  0  0  0  0  0  0  0  0
  -35.1874    4.7596  -39.0039 X   0  0  0  0  0  0  0  0  0  0  0  0
  1  2  1  0  0  0  0
  2  3  1  0  0  0  0
  2  9  1  0  0  0  0
  3  4  1  0  0  0  0
  4  5  1  0  0  0  0
  4  8  1  0  0  0  0
  5  6  1  0  0  0  0
  6  7  1  0  0  0  0
  6 10  1  0  0  0  0
  7  8  1  0  0  0  0
  8  9  1  0  0  0  0
M  END
> <Index>
7473

> <PropertyFieldDistance>
nan

$$$$
9154240
BBcorina  12272117083D 1   1.00000     0.00000 
CORINA 4.3.0 0026  30.10.2019
  9  9  0  0  0  0  0  0  0  0999 V2000
  -37.4178    6.5337  -40.7660 C   0  0  0  0  0  0  0  0  0  0  0  0
  -37.5032    5.3115  -41.5014 O   0  0  0  0  0  0  0  0  0  0  0  0
  -36.6293    5.2502  -42.6303 C   0  0  0  0  0  0  0  0  0  0  0  0
  -36.9723    4.0212  -43.4763 C   0  0  0  0  0  0  0  0  0  0  0  0
  -36.0216    3.9203  -44.5930 N   0  0  0  0  0  0  0  0  0  0  0  0
  -34.6419    3.8204  -44.0951 C   0  0  0  0  0  0  0  0  0  0  0  0
  -34.3222    5.0515  -43.2430 C   0  0  0  0  0  0  0  0  0  0  0  0
  -35.2752    5.1506  -42.1812 O   0  0  0  0  0  0  0  0  0  0  0  0
  -36.4046    2.5974  -45.6065 X   0  0  0  0  0  0  0  0  0  0  0  0
  1  2  1  0  0  0  0
  2  3  1  0  0  0  0
  3  4  1  0  0  0  0
  3  8  1  0  0  0  0
  4  5  1  0  0  0  0
  5  6  1  0  0  0  0
  5  9  1  0  0  0  0
  6  7  1  0  0  0  0
  7  8  1  0  0  0  0
M  END
> <Index>
7475

> <PropertyFieldDistance>
nan

$$$$
11353098
BBcorina  12272117083D 1   1.00000     0.00000 
CORINA 4.3.0 0026  30.10.2019
 11 11  0  0  0  0  0  0  0  0999 V2000
  -36.1538    4.8451  -40.0731 C   0  0  0  0  0  0  0  0  0  0  0  0
  -36.4491    4.1043  -41.3788 C   0  0  0  0  0  0  0  0  0  0  0  0
  -36.6100    5.1169  -42.5145 C   0  0  0  0  0  0  0  0  0  0  0  0
  -37.0258    4.3874  -43.7947 C   0  0  0  0  0  0  0  0  0  0  0  0
  -35.9552    3.4605  -44.1931 N   0  0  0  0  0  0  0  0  0  0  0  0
  -34.6938    4.1835  -44.4110 C   0  0  0  0  0  0  0  0  0  0  0  0
  -34.3025    4.9152  -43.1244 C   0  0  0  0  0  0  0  0  0  0  0  0
  -33.0329    5.7340  -43.3672 C   0  0  0  0  0  0  0  0  0  0  0  0
  -32.5758    6.3682  -42.0520 C   0  0  0  0  0  0  0  0  0  0  0  0
  -35.3666    5.7879  -42.7357 O   0  0  0  0  0  0  0  0  0  0  0  0
  -36.4007    2.5722  -45.5847 X   0  0  0  0  0  0  0  0  0  0  0  0
  1  2  1  0  0  0  0
  2  3  1  0  0  0  0
  3  4  1  0  0  0  0
  3 10  1  0  0  0  0
  4  5  1  0  0  0  0
  5  6  1  0  0  0  0
  5 11  1  0  0  0  0
  6  7  1  0  0  0  0
  7  8  1  0  0  0  0
  7 10  1  0  0  0  0
  8  9  1  0  0  0  0
M  END
> <Index>
7476

> <PropertyFieldDistance>
nan

$$$$
12311090
BBcorina  12272117083D 1   1.00000     0.00000 
CORINA 4.3.0 0026  30.10.2019
 10 10  0  0  0  0  0  0  0  0999 V2000
  -35.9684    2.4948  -47.8684 C   0  0  0  0  0  0  0  0  0  0  0  0
  -35.4660    3.1867  -46.5997 C   0  0  0  0  0  0  0  0  0  0  0  0
  -36.3547    2.9013  -45.5177 O   0  0  0  0  0  0  0  0  0  0  0  0
  -35.9652    3.5180  -44.2494 N   0  0  0  0  0  0  0  0  0  0  0  0
  -37.0136    4.4246  -43.7608 C   0  0  0  0  0  0  0  0  0  0  0  0
  -36.6039    4.9863  -42.3975 C   0  0  0  0  0  0  0  0  0  0  0  0
  -35.3206    5.6908  -42.5264 N   0  0  0  0  0  0  0  0  0  0  0  0
  -34.2722    4.7843  -43.0150 C   0  0  0  0  0  0  0  0  0  0  0  0
  -34.6820    4.2224  -44.3784 C   0  0  0  0  0  0  0  0  0  0  0  0
  -34.8655    6.4116  -41.0440 X   0  0  0  0  0  0  0  0  0  0  0  0
  1  2  1  0  0  0  0
  2  3  1  0  0  0  0
  3  4  1  0  0  0  0
  4  5  1  0  0  0  0
  4  9  1  0  0  0  0
  5  6  1  0  0  0  0
  6  7  1  0  0  0  0
  7  8  1  0  0  0  0
  7 10  1  0  0  0  0
  8  9  1  0  0  0  0
M  END
> <Index>
7478

> <PropertyFieldDistance>
nan

$$$$
6742712
BBcorina  12272117083D 1   1.00000     0.00000 
CORINA 4.3.0 0026  30.10.2019
  9  9  0  0  0  0  0  0  0  0999 V2000
  -37.0684    6.4708  -43.4624 C   0  0  0  0  0  0  0  0  0  0  0  0
  -36.8449    5.2338  -42.5902 C   0  0  0  0  0  0  0  0  0  0  0  0
  -37.8849    5.2012  -41.4685 C   0  0  0  0  0  0  0  0  0  0  0  0
  -36.9722    3.9696  -43.4472 C   0  0  0  0  0  0  0  0  0  0  0  0
  -36.0090    4.0170  -44.5496 N   0  0  0  0  0  0  0  0  0  0  0  0
  -34.6310    3.8028  -44.1016 C   0  0  0  0  0  0  0  0  0  0  0  0
  -34.1301    5.0403  -43.3491 C   0  0  0  0  0  0  0  0  0  0  0  0
  -35.1719    5.2824  -41.8778 S   0  0  0  0  0  0  0  0  0  0  0  0
  -36.4322    2.9085  -45.7810 X   0  0  0  0  0  0  0  0  0  0  0  0
  1  2  1  0  0  0  0
  2  3  1  0  0  0  0
  2  4  1  0  0  0  0
  2  8  1  0  0  0  0
  4  5  1  0  0  0  0
  5  6  1  0  0  0  0
  5  9  1  0  0  0  0
  6  7  1  0  0  0  0
  7  8  1  0  0  0  0
M  END
> <Index>
7480

> <PropertyFieldDistance>
nan

$$$$
7348980
BBcorina  12272117083D 1   1.00000     0.00000 
CORINA 4.3.0 0026  30.10.2019
 11 12  0  0  0  0  0  0  0  0999 V2000
  -36.0167    3.9387  -44.5837 N   0  0  0  0  0  0  0  0  0  0  0  0
  -36.9747    4.0146  -43.4743 C   0  0  0  0  0  0  0  0  0  0  0  0
  -36.6779    5.2464  -42.6138 C   0  0  0  0  0  0  0  0  0  0  0  0
  -35.2484    5.1485  -42.0799 C   0  0  0  0  0  0  0  0  0  0  0  0
  -34.9176    6.2969  -41.3044 O   0  0  0  0  0  0  0  0  0  0  0  0
  -33.6032    6.2525  -40.7417 C   0  0  0  0  0  0  0  0  0  0  0  0
  -32.5631    6.1690  -41.8610 C   0  0  0  0  0  0  0  0  0  0  0  0
  -32.8519    4.9446  -42.7372 C   0  0  0  0  0  0  0  0  0  0  0  0
  -34.2827    5.0495  -43.2687 C   0  0  0  0  0  0  0  0  0  0  0  0
  -34.6354    3.8143  -44.0971 C   0  0  0  0  0  0  0  0  0  0  0  0
  -36.4098    2.6579  -45.6462 X   0  0  0  0  0  0  0  0  0  0  0  0
  1  2  1  0  0  0  0
  1 10  1  0  0  0  0
  1 11  1  0  0  0  0
  2  3  1  0  0  0  0
  3  4  1  0  0  0  0
  4  5  1  0  0  0  0
  4  9  1  0  0  0  0
  5  6  1  0  0  0  0
  6  7  1  0  0  0  0
  7  8  1  0  0  0  0
  8  9  1  0  0  0  0
  9 10  1  0  0  0  0
M  END
> <Index>
7481

> <PropertyFieldDistance>
nan

$$$$
10269288
BBcorina  12272117083D 1   1.00000     0.00000 
CORINA 4.3.0 0026  30.10.2019
 11 12  0  0  0  0  0  0  0  0999 V2000
  -35.8845    3.5123  -44.0730 N   0  0  0  0  0  0  0  0  0  0  0  0
  -37.0193    4.3506  -43.7532 C   0  0  0  0  0  0  0  0  0  0  0  0
  -36.9551    5.1179  -42.4546 C   0  0  0  0  0  0  0  0  0  0  0  0
  -35.9499    6.2772  -42.5551 C   0  0  0  0  0  0  0  0  0  0  0  0
  -34.5641    5.6755  -42.3922 C   0  0  0  0  0  0  0  0  0  0  0  0
  -33.6877    5.9024  -41.4094 O   0  0  0  0  0  0  0  0  0  0  0  0
  -32.5784    5.1705  -41.6260 C   0  0  0  0  0  0  0  0  0  0  0  0
  -32.7468    4.4663  -42.7642 C   0  0  0  0  0  0  0  0  0  0  0  0
  -34.0233    4.7970  -43.2507 C   0  0  0  0  0  0  0  0  0  0  0  0
  -34.7051    4.2858  -44.5063 C   0  0  0  0  0  0  0  0  0  0  0  0
  -36.3037    2.3311  -45.2364 X   0  0  0  0  0  0  0  0  0  0  0  0
  1  2  1  0  0  0  0
  1 10  1  0  0  0  0
  1 11  1  0  0  0  0
  2  3  1  0  0  0  0
  3  4  1  0  0  0  0
  4  5  1  0  0  0  0
  5  6  1  0  0  0  0
  5  9  2  0  0  0  0
  6  7  1  0  0  0  0
  7  8  2  0  0  0  0
  8  9  1  0  0  0  0
  9 10  1  0  0  0  0
M  END
> <Index>
7482

> <PropertyFieldDistance>
nan

$$$$
12156324
BBcorina  12272117083D 1   1.00000     0.00000 
CORINA 4.3.0 0026  30.10.2019
 10 10  0  0  0  0  0  0  0  0999 V2000
  -35.1044    3.9406  -41.1839 C   0  0  0  0  0  0  0  0  0  0  0  0
  -35.2462    5.1676  -42.0870 C   0  0  0  0  0  0  0  0  0  0  0  0
  -36.6793    5.2476  -42.6202 C   0  0  0  0  0  0  0  0  0  0  0  0
  -36.9723    4.0087  -43.4695 C   0  0  0  0  0  0  0  0  0  0  0  0
  -36.0191    3.9414  -44.5845 N   0  0  0  0  0  0  0  0  0  0  0  0
  -34.6396    3.8164  -44.0970 C   0  0  0  0  0  0  0  0  0  0  0  0
  -34.2770    5.0496  -43.2665 C   0  0  0  0  0  0  0  0  0  0  0  0
  -32.8470    4.9098  -42.7406 C   0  0  0  0  0  0  0  0  0  0  0  0
  -31.9329    4.9149  -43.8389 O   0  0  0  0  0  0  0  0  0  0  0  0
  -36.4110    2.6622  -45.6495 X   0  0  0  0  0  0  0  0  0  0  0  0
  1  2  1  0  0  0  0
  2  3  1  0  0  0  0
  2  7  1  0  0  0  0
  3  4  1  0  0  0  0
  4  5  1  0  0  0  0
  5  6  1  0  0  0  0
  5 10  1  0  0  0  0
  6  7  1  0  0  0  0
  7  8  1  0  0  0  0
  8  9  1  0  0  0  0
M  END
> <Index>
7483

> <PropertyFieldDistance>
nan

$$$$
6474212
BBcorina  12272117083D 1   1.00000     0.00000 
CORINA 4.3.0 0026  30.10.2019
  9  9  0  0  0  0  0  0  0  0999 V2000
  -36.5890    6.2463  -42.0541 C   0  0  0  0  0  0  0  0  0  0  0  0
  -36.4760    4.7969  -42.5309 C   0  0  0  0  0  0  0  0  0  0  0  0
  -36.8139    3.7799  -41.4389 C   0  0  0  0  0  0  0  0  0  0  0  0
  -37.1869    4.5278  -43.8695 C   0  0  0  0  0  0  0  0  0  0  0  0
  -36.0008    3.7171  -44.2231 N   0  0  0  0  0  0  0  0  0  0  0  0
  -35.1655    4.4910  -43.2784 C   0  0  0  0  0  0  0  0  0  0  0  0
  -34.5098    5.7241  -43.9030 C   0  0  0  0  0  0  0  0  0  0  0  0
  -34.1848    3.6326  -42.4769 C   0  0  0  0  0  0  0  0  0  0  0  0
  -35.5228    4.0029  -45.8398 X   0  0  0  0  0  0  0  0  0  0  0  0
  1  2  1  0  0  0  0
  2  3  1  0  0  0  0
  2  4  1  0  0  0  0
  2  6  1  0  0  0  0
  4  5  1  0  0  0  0
  5  6  1  0  0  0  0
  5  9  1  0  0  0  0
  6  7  1  0  0  0  0
  6  8  1  0  0  0  0
M  END
> <Index>
7484

> <PropertyFieldDistance>
nan

$$$$
16627936
BBcorina  12272117083D 1   1.00000     0.00000 
CORINA 4.3.0 0026  30.10.2019
  9 10  0  0  0  0  0  0  0  0999 V2000
  -35.9902    3.6858  -44.3670 N   0  0  0  0  0  0  0  0  0  0  0  0
  -36.8517    4.7342  -43.8071 C   0  0  0  0  0  0  0  0  0  0  0  0
  -36.9026    4.6293  -42.2811 C   0  0  0  0  0  0  0  0  0  0  0  0
  -35.4612    4.6681  -41.7370 C   0  0  0  0  0  0  0  0  0  0  0  0
  -34.7380    5.8311  -42.4572 C   0  0  0  0  0  0  0  0  0  0  0  0
  -34.2139    5.2517  -43.7838 C   0  0  0  0  0  0  0  0  0  0  0  0
  -34.6288    3.7625  -43.7988 C   0  0  0  0  0  0  0  0  0  0  0  0
  -34.7540    3.4029  -42.2943 C   0  0  0  0  0  0  0  0  0  0  0  0
  -35.9476    3.7743  -46.0741 X   0  0  0  0  0  0  0  0  0  0  0  0
  1  2  1  0  0  0  0
  1  7  1  0  0  0  0
  1  9  1  0  0  0  0
  2  3  1  0  0  0  0
  3  4  1  0  0  0  0
  4  5  1  0  0  0  0
  4  8  1  0  0  0  0
  5  6  1  0  0  0  0
  6  7  1  0  0  0  0
  7  8  1  0  0  0  0
M  END
> <Index>
7489

> <PropertyFieldDistance>
nan

$$$$
14591724
BBcorina  12272117083D 1   1.00000     0.00000 
CORINA 4.3.0 0026  30.10.2019
  8  8  0  0  0  0  0  0  0  0999 V2000
  -36.4222    2.2000  -44.7429 C   0  0  0  0  0  0  0  0  0  0  0  0
  -35.9363    3.4769  -44.2139 N   0  0  0  0  0  0  0  0  0  0  0  0
  -36.7868    4.5946  -43.7868 C   0  0  0  0  0  0  0  0  0  0  0  0
  -35.9301    5.4636  -42.9453 N   0  0  0  0  0  0  0  0  0  0  0  0
  -34.5689    5.2039  -43.4719 C   0  0  0  0  0  0  0  0  0  0  0  0
  -34.6393    3.8075  -44.0504 C   0  0  0  0  0  0  0  0  0  0  0  0
  -33.6891    3.1040  -44.3210 O   0  0  0  0  0  0  0  0  0  0  0  0
  -36.3574    7.1084  -43.1360 X   0  0  0  0  0  0  0  0  0  0  0  0
  1  2  1  0  0  0  0
  2  3  1  0  0  0  0
  2  6  1  0  0  0  0
  3  4  1  0  0  0  0
  4  5  1  0  0  0  0
  4  8  1  0  0  0  0
  5  6  1  0  0  0  0
  6  7  2  0  0  0  0
M  END
> <Index>
7490

> <PropertyFieldDistance>
nan

$$$$
11620200
BBcorina  12272117083D 1   1.00000     0.00000 
CORINA 4.3.0 0026  30.10.2019
  9  9  0  0  0  0  0  0  0  0999 V2000
  -38.1801    3.4194  -43.6343 C   0  0  0  0  0  0  0  0  0  0  0  0
  -37.0815    4.4755  -43.7701 C   0  0  0  0  0  0  0  0  0  0  0  0
  -35.8248    3.8542  -44.2521 N   0  0  0  0  0  0  0  0  0  0  0  0
  -34.7758    4.6303  -43.5492 C   0  0  0  0  0  0  0  0  0  0  0  0
  -35.3918    5.1251  -42.3120 N   0  0  0  0  0  0  0  0  0  0  0  0
  -34.6601    5.6211  -41.1438 C   0  0  0  0  0  0  0  0  0  0  0  0
  -36.7344    5.0522  -42.4150 C   0  0  0  0  0  0  0  0  0  0  0  0
  -37.5298    5.3913  -41.5645 O   0  0  0  0  0  0  0  0  0  0  0  0
  -35.7546    2.2006  -43.8218 X   0  0  0  0  0  0  0  0  0  0  0  0
  1  2  1  0  0  0  0
  2  3  1  0  0  0  0
  2  7  1  0  0  0  0
  3  4  1  0  0  0  0
  3  9  1  0  0  0  0
  4  5  1  0  0  0  0
  5  6  1  0  0  0  0
  5  7  1  0  0  0  0
  7  8  2  0  0  0  0
M  END
> <Index>
7491

> <PropertyFieldDistance>
nan

$$$$
4974956
BBcorina  12272117083D 1   1.00000     0.00000 
CORINA 4.3.0 0026  30.10.2019
 16 17  0  0  0  0  0  0  0  0999 V2000
  -32.6553    6.9078  -43.4136 C   0  0  0  0  0  0  0  0  0  0  0  0
  -33.2330    5.7804  -44.1577 N   0  0  0  0  0  0  0  0  0  0  0  0
  -34.2579    5.0935  -43.3605 C   0  0  0  0  0  0  0  0  0  0  0  0
  -35.4407    6.0376  -43.1307 C   0  0  0  0  0  0  0  0  0  0  0  0
  -36.6020    5.2259  -42.5441 C   0  0  0  0  0  0  0  0  0  0  0  0
  -37.1071    4.2555  -43.6151 C   0  0  0  0  0  0  0  0  0  0  0  0
  -35.9971    3.4945  -44.1750 N   0  0  0  0  0  0  0  0  0  0  0  0
  -34.7190    3.8657  -44.0921 C   0  0  0  0  0  0  0  0  0  0  0  0
  -33.8841    3.1749  -44.6370 O   0  0  0  0  0  0  0  0  0  0  0  0
  -36.2916    2.3027  -44.8464 C   0  0  0  0  0  0  0  0  0  0  0  0
  -36.3160    1.1005  -44.1517 C   0  0  0  0  0  0  0  0  0  0  0  0
  -36.6075   -0.0741  -44.8172 C   0  0  0  0  0  0  0  0  0  0  0  0
  -36.8754   -0.0537  -46.1737 C   0  0  0  0  0  0  0  0  0  0  0  0
  -36.8468    1.1410  -46.8693 C   0  0  0  0  0  0  0  0  0  0  0  0
  -36.5606    2.3197  -46.2087 C   0  0  0  0  0  0  0  0  0  0  0  0
  -33.8688    6.2982  -45.6583 X   0  0  0  0  0  0  0  0  0  0  0  0
  1  2  1  0  0  0  0
  2  3  1  0  0  0  0
  2 16  1  0  0  0  0
  3  4  1  0  0  0  0
  3  8  1  0  0  0  0
  4  5  1  0  0  0  0
  5  6  1  0  0  0  0
  6  7  1  0  0  0  0
  7  8  1  0  0  0  0
  7 10  1  0  0  0  0
  8  9  2  0  0  0  0
 10 11  2  0  0  0  0
 10 15  1  0  0  0  0
 11 12  1  0  0  0  0
 12 13  2  0  0  0  0
 13 14  1  0  0  0  0
 14 15  2  0  0  0  0
M  END
> <Index>
7498

> <PropertyFieldDistance>
nan

$$$$
5136126
BBcorina  12272117083D 1   1.00000     0.00000 
CORINA 4.3.0 0026  30.10.2019
 14 15  0  0  0  0  0  0  0  0999 V2000
  -34.6519    6.5616  -41.6794 N   0  0  0  0  0  0  0  0  0  0  0  0
  -35.2321    5.8579  -42.8310 C   0  0  0  0  0  0  0  0  0  0  0  0
  -36.5239    5.1556  -42.4037 C   0  0  0  0  0  0  0  0  0  0  0  0
  -37.0920    4.3761  -43.5918 C   0  0  0  0  0  0  0  0  0  0  0  0
  -36.1051    3.3890  -44.0481 N   0  0  0  0  0  0  0  0  0  0  0  0
  -36.6675    2.5286  -45.0975 C   0  0  0  0  0  0  0  0  0  0  0  0
  -35.5846    1.5785  -45.6128 C   0  0  0  0  0  0  0  0  0  0  0  0
  -36.1689    0.6161  -46.6753 C   0  0  0  0  0  0  0  0  0  0  0  0
  -35.4840   -0.7269  -46.3053 C   0  0  0  0  0  0  0  0  0  0  0  0
  -35.4352   -0.6960  -44.8627 O   0  0  0  0  0  0  0  0  0  0  0  0
  -35.1001    0.6493  -44.4828 C   0  0  0  0  0  0  0  0  0  0  0  0
  -34.8734    4.0432  -44.5079 C   0  0  0  0  0  0  0  0  0  0  0  0
  -34.2391    4.8129  -43.3472 C   0  0  0  0  0  0  0  0  0  0  0  0
  -34.2891    5.4705  -40.4137 X   0  0  0  0  0  0  0  0  0  0  0  0
  1  2  1  0  0  0  0
  1 14  1  0  0  0  0
  2  3  1  0  0  0  0
  2 13  1  0  0  0  0
  3  4  1  0  0  0  0
  4  5  1  0  0  0  0
  5  6  1  0  0  0  0
  5 12  1  0  0  0  0
  6  7  1  0  0  0  0
  7  8  1  0  0  0  0
  7 11  1  0  0  0  0
  8  9  1  0  0  0  0
  9 10  1  0  0  0  0
 10 11  1  0  0  0  0
 12 13  1  0  0  0  0
M  END
> <Index>
7500

> <PropertyFieldDistance>
nan

$$$$
6175806
BBcorina  12272117083D 1   1.00000     0.00000 
CORINA 4.3.0 0026  30.10.2019
 13 14  0  0  0  0  0  0  0  0999 V2000
  -33.8941    5.8301  -43.2018 N   0  0  0  0  0  0  0  0  0  0  0  0
  -34.8181    4.7537  -42.8204 C   0  0  0  0  0  0  0  0  0  0  0  0
  -36.2669    5.2880  -42.7474 C   0  0  0  0  0  0  0  0  0  0  0  0
  -37.0962    4.1236  -43.3452 C   0  0  0  0  0  0  0  0  0  0  0  0
  -36.2260    3.6071  -44.4362 N   0  0  0  0  0  0  0  0  0  0  0  0
  -36.5938    2.2329  -44.8029 C   0  0  0  0  0  0  0  0  0  0  0  0
  -35.7272    1.7686  -45.9752 C   0  0  0  0  0  0  0  0  0  0  0  0
  -36.0323    0.2971  -46.3059 C   0  0  0  0  0  0  0  0  0  0  0  0
  -36.5475    0.2698  -47.7597 C   0  0  0  0  0  0  0  0  0  0  0  0
  -35.9634    1.5565  -48.3939 C   0  0  0  0  0  0  0  0  0  0  0  0
  -36.0675    2.5842  -47.2397 C   0  0  0  0  0  0  0  0  0  0  0  0
  -34.8459    3.6631  -43.9073 C   0  0  0  0  0  0  0  0  0  0  0  0
  -34.3719    6.5543  -44.6755 X   0  0  0  0  0  0  0  0  0  0  0  0
  1  2  1  0  0  0  0
  1 13  1  0  0  0  0
  2  3  1  0  0  0  0
  2 12  1  0  0  0  0
  3  4  1  0  0  0  0
  4  5  1  0  0  0  0
  5  6  1  0  0  0  0
  5 12  1  0  0  0  0
  6  7  1  0  0  0  0
  7  8  1  0  0  0  0
  7 11  1  0  0  0  0
  8  9  1  0  0  0  0
  9 10  1  0  0  0  0
 10 11  1  0  0  0  0
M  END
> <Index>
7501

> <PropertyFieldDistance>
nan

$$$$
9438388
BBcorina  12272117083D 1   1.00000     0.00000 
CORINA 4.3.0 0026  30.10.2019
  8  8  0  0  0  0  0  0  0  0999 V2000
  -35.4897    0.8759  -42.2742 C   0  0  0  0  0  0  0  0  0  0  0  0
  -34.7697    1.9637  -42.9498 N   0  0  0  0  0  0  0  0  0  0  0  0
  -35.5468    2.4858  -44.0818 C   0  0  0  0  0  0  0  0  0  0  0  0
  -36.8688    3.1887  -43.7669 C   0  0  0  0  0  0  0  0  0  0  0  0
  -35.6575    4.0054  -44.2216 C   0  0  0  0  0  0  0  0  0  0  0  0
  -34.9505    4.8648  -43.1717 C   0  0  0  0  0  0  0  0  0  0  0  0
  -35.6871    4.5843  -45.6376 C   0  0  0  0  0  0  0  0  0  0  0  0
  -33.2190    1.4506  -43.4557 X   0  0  0  0  0  0  0  0  0  0  0  0
  1  2  1  0  0  0  0
  2  3  1  0  0  0  0
  2  8  1  0  0  0  0
  3  4  1  0  0  0  0
  3  5  1  0  0  0  0
  4  5  1  0  0  0  0
  5  6  1  0  0  0  0
  5  7  1  0  0  0  0
M  END
> <Index>
7506

> <PropertyFieldDistance>
nan

$$$$
6582220
BBcorina  12272117083D 1   1.00000     0.00000 
CORINA 4.3.0 0026  30.10.2019
 16 17  0  0  0  0  0  0  0  0999 V2000
  -36.2209    4.2431  -41.2531 C   0  0  0  0  0  0  0  0  0  0  0  0
  -36.5244    5.1793  -42.4246 C   0  0  0  0  0  0  0  0  0  0  0  0
  -37.0941    4.3694  -43.5915 C   0  0  0  0  0  0  0  0  0  0  0  0
  -36.1068    3.3727  -44.0255 N   0  0  0  0  0  0  0  0  0  0  0  0
  -36.6704    2.4855  -45.0516 C   0  0  0  0  0  0  0  0  0  0  0  0
  -35.5713    1.6435  -45.6464 C   0  0  0  0  0  0  0  0  0  0  0  0
  -35.2601    0.4179  -45.0876 C   0  0  0  0  0  0  0  0  0  0  0  0
  -34.2518   -0.3545  -45.6332 C   0  0  0  0  0  0  0  0  0  0  0  0
  -33.5553    0.0981  -46.7381 C   0  0  0  0  0  0  0  0  0  0  0  0
  -33.8670    1.3233  -47.2974 C   0  0  0  0  0  0  0  0  0  0  0  0
  -34.8779    2.0939  -46.7542 C   0  0  0  0  0  0  0  0  0  0  0  0
  -34.8772    4.0170  -44.5044 C   0  0  0  0  0  0  0  0  0  0  0  0
  -34.2413    4.8164  -43.3649 C   0  0  0  0  0  0  0  0  0  0  0  0
  -35.2346    5.8725  -42.8725 C   0  0  0  0  0  0  0  0  0  0  0  0
  -34.6519    6.6043  -41.7399 N   0  0  0  0  0  0  0  0  0  0  0  0
  -33.8992    5.5329  -40.6401 X   0  0  0  0  0  0  0  0  0  0  0  0
  1  2  1  0  0  0  0
  2  3  1  0  0  0  0
  2 14  1  0  0  0  0
  3  4  1  0  0  0  0
  4  5  1  0  0  0  0
  4 12  1  0  0  0  0
  5  6  1  0  0  0  0
  6  7  2  0  0  0  0
  6 11  1  0  0  0  0
  7  8  1  0  0  0  0
  8  9  2  0  0  0  0
  9 10  1  0  0  0  0
 10 11  2  0  0  0  0
 12 13  1  0  0  0  0
 13 14  1  0  0  0  0
 14 15  1  0  0  0  0
 15 16  1  0  0  0  0
M  END
> <Index>
7533

> <PropertyFieldDistance>
nan

$$$$
17519120
BBcorina  12272117083D 1   1.00000     0.00000 
CORINA 4.3.0 0026  30.10.2019
 16 17  0  0  0  0  0  0  0  0999 V2000
  -34.0526    4.5263  -41.9336 C   0  0  0  0  0  0  0  0  0  0  0  0
  -34.3085    5.0407  -43.3517 C   0  0  0  0  0  0  0  0  0  0  0  0
  -35.4754    6.0319  -43.3332 C   0  0  0  0  0  0  0  0  0  0  0  0
  -36.7414    5.3090  -42.8649 C   0  0  0  0  0  0  0  0  0  0  0  0
  -37.0207    4.1258  -43.7944 C   0  0  0  0  0  0  0  0  0  0  0  0
  -35.8757    3.2066  -43.7764 N   0  0  0  0  0  0  0  0  0  0  0  0
  -36.1644    1.9909  -44.5489 C   0  0  0  0  0  0  0  0  0  0  0  0
  -36.3165    2.3457  -46.0056 C   0  0  0  0  0  0  0  0  0  0  0  0
  -35.2133    2.3346  -46.8386 C   0  0  0  0  0  0  0  0  0  0  0  0
  -35.3530    2.6597  -48.1749 C   0  0  0  0  0  0  0  0  0  0  0  0
  -36.5957    2.9961  -48.6781 C   0  0  0  0  0  0  0  0  0  0  0  0
  -37.6990    3.0067  -47.8453 C   0  0  0  0  0  0  0  0  0  0  0  0
  -37.5602    2.6766  -46.5101 C   0  0  0  0  0  0  0  0  0  0  0  0
  -34.6584    3.8652  -44.2670 C   0  0  0  0  0  0  0  0  0  0  0  0
  -37.8781    6.2388  -42.8993 N   0  0  0  0  0  0  0  0  0  0  0  0
  -39.0341    5.8379  -41.7047 X   0  0  0  0  0  0  0  0  0  0  0  0
  1  2  1  0  0  0  0
  2  3  1  0  0  0  0
  2 14  1  0  0  0  0
  3  4  1  0  0  0  0
  4  5  1  0  0  0  0
  4 15  1  0  0  0  0
  5  6  1  0  0  0  0
  6  7  1  0  0  0  0
  6 14  1  0  0  0  0
  7  8  1  0  0  0  0
  8  9  2  0  0  0  0
  8 13  1  0  0  0  0
  9 10  1  0  0  0  0
 10 11  2  0  0  0  0
 11 12  1  0  0  0  0
 12 13  2  0  0  0  0
 15 16  1  0  0  0  0
M  END
> <Index>
7534

> <PropertyFieldDistance>
nan

$$$$
9868954
BBcorina  12272117083D 1   1.00000     0.00000 
CORINA 4.3.0 0026  30.10.2019
 12 13  0  0  0  0  0  0  0  0999 V2000
  -36.5938    3.7084  -40.5619 N   0  0  0  0  0  0  0  0  0  0  0  0
  -36.7192    4.9109  -41.3963 C   0  0  0  0  0  0  0  0  0  0  0  0
  -37.8047    4.7208  -42.4833 C   0  0  0  0  0  0  0  0  0  0  0  0
  -37.0411    4.2125  -43.6888 C   0  0  0  0  0  0  0  0  0  0  0  0
  -37.5458    3.7055  -44.6681 O   0  0  0  0  0  0  0  0  0  0  0  0
  -35.7313    4.4050  -43.5160 N   0  0  0  0  0  0  0  0  0  0  0  0
  -34.6206    3.9511  -44.3719 C   0  0  0  0  0  0  0  0  0  0  0  0
  -33.3896    4.7741  -43.9776 C   0  0  0  0  0  0  0  0  0  0  0  0
  -33.0279    4.5738  -42.5127 C   0  0  0  0  0  0  0  0  0  0  0  0
  -34.2517    4.4245  -41.6144 C   0  0  0  0  0  0  0  0  0  0  0  0
  -35.4558    5.1232  -42.2510 C   0  0  0  0  0  0  0  0  0  0  0  0
  -35.8610    4.0771  -39.0616 X   0  0  0  0  0  0  0  0  0  0  0  0
  1  2  1  0  0  0  0
  1 12  1  0  0  0  0
  2  3  1  0  0  0  0
  2 11  1  0  0  0  0
  3  4  1  0  0  0  0
  4  5  2  0  0  0  0
  4  6  1  0  0  0  0
  6  7  1  0  0  0  0
  6 11  1  0  0  0  0
  7  8  1  0  0  0  0
  8  9  1  0  0  0  0
  9 10  1  0  0  0  0
 10 11  1  0  0  0  0
M  END
> <Index>
7536

> <PropertyFieldDistance>
nan

$$$$
6174384
BBcorina  12272117083D 1   1.00000     0.00000 
CORINA 4.3.0 0026  30.10.2019
 13 13  0  0  0  0  0  0  0  0999 V2000
  -36.7088    1.4400  -44.9980 C   0  0  0  0  0  0  0  0  0  0  0  0
  -36.0286    2.7017  -45.5332 C   0  0  0  0  0  0  0  0  0  0  0  0
  -36.9258    3.3578  -46.5846 C   0  0  0  0  0  0  0  0  0  0  0  0
  -35.8022    3.6394  -44.4307 N   0  0  0  0  0  0  0  0  0  0  0  0
  -36.8596    4.0869  -43.7453 C   0  0  0  0  0  0  0  0  0  0  0  0
  -37.9612    3.6761  -44.0430 O   0  0  0  0  0  0  0  0  0  0  0  0
  -36.7401    5.0776  -42.6219 C   0  0  0  0  0  0  0  0  0  0  0  0
  -35.3494    5.1358  -42.1525 N   0  0  0  0  0  0  0  0  0  0  0  0
  -34.4353    5.3217  -43.2883 C   0  0  0  0  0  0  0  0  0  0  0  0
  -34.4320    4.0436  -44.1289 C   0  0  0  0  0  0  0  0  0  0  0  0
  -33.7329    2.9264  -43.3516 C   0  0  0  0  0  0  0  0  0  0  0  0
  -33.6782    4.2977  -45.4360 C   0  0  0  0  0  0  0  0  0  0  0  0
  -34.9436    3.7331  -41.2626 X   0  0  0  0  0  0  0  0  0  0  0  0
  1  2  1  0  0  0  0
  2  3  1  0  0  0  0
  2  4  1  0  0  0  0
  4  5  1  0  0  0  0
  4 10  1  0  0  0  0
  5  6  2  0  0  0  0
  5  7  1  0  0  0  0
  7  8  1  0  0  0  0
  8  9  1  0  0  0  0
  8 13  1  0  0  0  0
  9 10  1  0  0  0  0
 10 11  1  0  0  0  0
 10 12  1  0  0  0  0
M  END
> <Index>
7537

> <PropertyFieldDistance>
nan

$$$$
5350202
BBcorina  12272117083D 1   1.00000     0.00000 
CORINA 4.3.0 0026  30.10.2019
 14 15  0  0  0  0  0  0  0  0999 V2000
  -35.9618    3.7304  -44.7320 N   0  0  0  0  0  0  0  0  0  0  0  0
  -37.1358    4.3726  -44.0982 C   0  0  0  0  0  0  0  0  0  0  0  0
  -37.2362    4.0863  -42.6216 C   0  0  0  0  0  0  0  0  0  0  0  0
  -36.5235    5.2144  -41.8425 C   0  0  0  0  0  0  0  0  0  0  0  0
  -35.1304    5.0826  -41.9073 N   0  0  0  0  0  0  0  0  0  0  0  0
  -34.5690    5.1604  -43.2711 C   0  0  0  0  0  0  0  0  0  0  0  0
  -34.7292    3.8095  -43.9212 C   0  0  0  0  0  0  0  0  0  0  0  0
  -34.4688    6.0395  -41.0103 C   0  0  0  0  0  0  0  0  0  0  0  0
  -35.0060    7.4487  -41.2781 C   0  0  0  0  0  0  0  0  0  0  0  0
  -34.3694    8.4262  -40.2866 C   0  0  0  0  0  0  0  0  0  0  0  0
  -34.6520    8.0002  -38.9520 O   0  0  0  0  0  0  0  0  0  0  0  0
  -34.1324    6.7088  -38.6294 C   0  0  0  0  0  0  0  0  0  0  0  0
  -34.7595    5.6624  -39.5545 C   0  0  0  0  0  0  0  0  0  0  0  0
  -35.7009    4.3471  -46.3054 X   0  0  0  0  0  0  0  0  0  0  0  0
  1  2  1  0  0  0  0
  1  7  1  0  0  0  0
  1 14  1  0  0  0  0
  2  3  1  0  0  0  0
  3  4  1  0  0  0  0
  4  5  1  0  0  0  0
  5  6  1  0  0  0  0
  5  8  1  0  0  0  0
  6  7  1  0  0  0  0
  8  9  1  0  0  0  0
  8 13  1  0  0  0  0
  9 10  1  0  0  0  0
 10 11  1  0  0  0  0
 11 12  1  0  0  0  0
 12 13  1  0  0  0  0
M  END
> <Index>
7538

> <PropertyFieldDistance>
nan

$$$$
5727548
BBcorina  12272117083D 1   1.00000     0.00000 
CORINA 4.3.0 0026  30.10.2019
 10 10  0  0  0  0  0  0  0  0999 V2000
  -38.2982    7.7139  -40.4384 C   0  0  0  0  0  0  0  0  0  0  0  0
  -37.3539    6.7382  -40.8835 O   0  0  0  0  0  0  0  0  0  0  0  0
  -37.6840    6.1401  -42.1386 C   0  0  0  0  0  0  0  0  0  0  0  0
  -36.6101    5.1171  -42.5144 C   0  0  0  0  0  0  0  0  0  0  0  0
  -37.0250    4.3871  -43.7945 C   0  0  0  0  0  0  0  0  0  0  0  0
  -35.9556    3.4605  -44.1936 N   0  0  0  0  0  0  0  0  0  0  0  0
  -34.6940    4.1834  -44.4108 C   0  0  0  0  0  0  0  0  0  0  0  0
  -34.3026    4.9154  -43.1244 C   0  0  0  0  0  0  0  0  0  0  0  0
  -35.3668    5.7882  -42.7358 O   0  0  0  0  0  0  0  0  0  0  0  0
  -36.4018    2.5727  -45.5854 X   0  0  0  0  0  0  0  0  0  0  0  0
  1  2  1  0  0  0  0
  2  3  1  0  0  0  0
  3  4  1  0  0  0  0
  4  5  1  0  0  0  0
  4  9  1  0  0  0  0
  5  6  1  0  0  0  0
  6  7  1  0  0  0  0
  6 10  1  0  0  0  0
  7  8  1  0  0  0  0
  8  9  1  0  0  0  0
M  END
> <Index>
7551

> <PropertyFieldDistance>
nan

$$$$
5531216
BBcorina  12272117083D 1   1.00000     0.00000 
CORINA 4.3.0 0026  30.10.2019
 10 10  0  0  0  0  0  0  0  0999 V2000
  -36.9694    5.8319  -44.7809 C   0  0  0  0  0  0  0  0  0  0  0  0
  -36.2570    5.2282  -43.5690 C   0  0  0  0  0  0  0  0  0  0  0  0
  -35.6282    3.8897  -43.9614 C   0  0  0  0  0  0  0  0  0  0  0  0
  -36.7325    2.8931  -44.3197 C   0  0  0  0  0  0  0  0  0  0  0  0
  -36.1037    1.5546  -44.7122 C   0  0  0  0  0  0  0  0  0  0  0  0
  -35.2873    1.0109  -43.5380 C   0  0  0  0  0  0  0  0  0  0  0  0
  -34.1831    2.0075  -43.1797 C   0  0  0  0  0  0  0  0  0  0  0  0
  -34.8118    3.3460  -42.7872 C   0  0  0  0  0  0  0  0  0  0  0  0
  -33.3992    1.4854  -42.0523 N   0  0  0  0  0  0  0  0  0  0  0  0
  -31.8113    2.1199  -42.0641 X   0  0  0  0  0  0  0  0  0  0  0  0
  1  2  1  0  0  0  0
  2  3  1  0  0  0  0
  3  4  1  0  0  0  0
  3  8  1  0  0  0  0
  4  5  1  0  0  0  0
  5  6  1  0  0  0  0
  6  7  1  0  0  0  0
  7  8  1  0  0  0  0
  7  9  1  0  0  0  0
  9 10  1  0  0  0  0
M  END
> <Index>
7571

> <PropertyFieldDistance>
nan

$$$$
6672306
BBcorina  12272117083D 1   1.00000     0.00000 
CORINA 4.3.0 0026  30.10.2019
 14 15  0  0  0  0  0  0  0  0999 V2000
  -38.5359    0.0097  -46.5291 C   0  0  0  0  0  0  0  0  0  0  0  0
  -37.4437    0.8607  -46.0505 N   0  0  0  0  0  0  0  0  0  0  0  0
  -37.5588    1.8913  -45.1735 C   0  0  0  0  0  0  0  0  0  0  0  0
  -36.3202    2.4175  -44.9948 C   0  0  0  0  0  0  0  0  0  0  0  0
  -35.4249    1.6891  -45.7917 C   0  0  0  0  0  0  0  0  0  0  0  0
  -36.0958    0.7559  -46.4169 N   0  0  0  0  0  0  0  0  0  0  0  0
  -35.9935    3.5047  -44.1625 N   0  0  0  0  0  0  0  0  0  0  0  0
  -37.0768    4.2309  -43.5063 C   0  0  0  0  0  0  0  0  0  0  0  0
  -36.5271    5.0456  -42.3338 C   0  0  0  0  0  0  0  0  0  0  0  0
  -35.3753    5.8322  -42.8039 N   0  0  0  0  0  0  0  0  0  0  0  0
  -34.2473    4.9435  -43.1136 C   0  0  0  0  0  0  0  0  0  0  0  0
  -34.7047    3.8261  -44.0079 C   0  0  0  0  0  0  0  0  0  0  0  0
  -33.8700    3.1888  -44.6149 O   0  0  0  0  0  0  0  0  0  0  0  0
  -35.7960    6.7842  -44.1606 X   0  0  0  0  0  0  0  0  0  0  0  0
  1  2  1  0  0  0  0
  2  3  1  0  0  0  0
  2  6  1  0  0  0  0
  3  4  2  0  0  0  0
  4  5  1  0  0  0  0
  4  7  1  0  0  0  0
  5  6  2  0  0  0  0
  7  8  1  0  0  0  0
  7 12  1  0  0  0  0
  8  9  1  0  0  0  0
  9 10  1  0  0  0  0
 10 11  1  0  0  0  0
 10 14  1  0  0  0  0
 11 12  1  0  0  0  0
 12 13  2  0  0  0  0
M  END
> <Index>
7580

> <PropertyFieldDistance>
nan

$$$$
5000118
BBcorina  12272117083D 1   1.00000     0.00000 
CORINA 4.3.0 0026  30.10.2019
 13 14  0  0  0  0  0  0  0  0999 V2000
  -36.4389   -0.9725  -46.9449 C   0  0  0  0  0  0  0  0  0  0  0  0
  -36.5229    0.2555  -46.0755 C   0  0  0  0  0  0  0  0  0  0  0  0
  -37.4007    0.4605  -45.0931 C   0  0  0  0  0  0  0  0  0  0  0  0
  -37.2684    1.6183  -44.4705 N   0  0  0  0  0  0  0  0  0  0  0  0
  -36.3252    2.4040  -44.8886 C   0  0  0  0  0  0  0  0  0  0  0  0
  -35.4786    1.6703  -46.1802 S   0  0  0  0  0  0  0  0  0  0  0  0
  -36.0411    3.6541  -44.3614 N   0  0  0  0  0  0  0  0  0  0  0  0
  -36.9585    3.9825  -43.2614 C   0  0  0  0  0  0  0  0  0  0  0  0
  -36.6645    5.3986  -42.7606 C   0  0  0  0  0  0  0  0  0  0  0  0
  -35.2658    5.4779  -42.3168 N   0  0  0  0  0  0  0  0  0  0  0  0
  -34.3480    5.1498  -43.4166 C   0  0  0  0  0  0  0  0  0  0  0  0
  -34.6420    3.7336  -43.9175 C   0  0  0  0  0  0  0  0  0  0  0  0
  -34.9158    7.0201  -41.6662 X   0  0  0  0  0  0  0  0  0  0  0  0
  1  2  1  0  0  0  0
  2  3  2  0  0  0  0
  2  6  1  0  0  0  0
  3  4  1  0  0  0  0
  4  5  2  0  0  0  0
  5  6  1  0  0  0  0
  5  7  1  0  0  0  0
  7  8  1  0  0  0  0
  7 12  1  0  0  0  0
  8  9  1  0  0  0  0
  9 10  1  0  0  0  0
 10 11  1  0  0  0  0
 10 13  1  0  0  0  0
 11 12  1  0  0  0  0
M  END
> <Index>
7589

> <PropertyFieldDistance>
nan

$$$$
11684230
BBcorina  12272117083D 1   1.00000     0.00000 
CORINA 4.3.0 0026  30.10.2019
 11 11  0  0  0  0  0  0  0  0999 V2000
  -36.6846    0.9464  -44.6964 C   0  0  0  0  0  0  0  0  0  0  0  0
  -36.3423    2.4660  -45.6259 S   0  0  0  0  0  0  0  0  0  0  0  0
  -35.1133    2.3536  -46.3305 O   0  0  0  0  0  0  0  0  0  0  0  0
  -37.5187    2.9296  -46.2744 O   0  0  0  0  0  0  0  0  0  0  0  0
  -36.0425    3.6042  -44.4611 N   0  0  0  0  0  0  0  0  0  0  0  0
  -37.0508    4.4782  -43.8341 C   0  0  0  0  0  0  0  0  0  0  0  0
  -36.4385    4.8656  -42.4625 C   0  0  0  0  0  0  0  0  0  0  0  0
  -34.9376    5.0167  -42.8256 C   0  0  0  0  0  0  0  0  0  0  0  0
  -34.7259    3.9151  -43.8854 C   0  0  0  0  0  0  0  0  0  0  0  0
  -34.0915    4.7758  -41.6492 N   0  0  0  0  0  0  0  0  0  0  0  0
  -33.6586    6.2476  -40.8939 X   0  0  0  0  0  0  0  0  0  0  0  0
  1  2  1  0  0  0  0
  2  3  2  0  0  0  0
  2  4  2  0  0  0  0
  2  5  1  0  0  0  0
  5  6  1  0  0  0  0
  5  9  1  0  0  0  0
  6  7  1  0  0  0  0
  7  8  1  0  0  0  0
  8  9  1  0  0  0  0
  8 10  1  0  0  0  0
 10 11  1  0  0  0  0
M  END
> <Index>
7590

> <PropertyFieldDistance>
nan

$$$$
5000122
BBcorina  12272117083D 1   1.00000     0.00000 
CORINA 4.3.0 0026  30.10.2019
 14 14  0  0  0  0  0  0  0  0999 V2000
  -35.4432   -1.8085  -46.9508 C   0  0  0  0  0  0  0  0  0  0  0  0
  -34.8847   -0.4266  -46.6055 C   0  0  0  0  0  0  0  0  0  0  0  0
  -35.9034    0.3500  -45.9214 O   0  0  0  0  0  0  0  0  0  0  0  0
  -35.5705    1.5984  -45.5464 C   0  0  0  0  0  0  0  0  0  0  0  0
  -34.4614    2.0273  -45.7835 O   0  0  0  0  0  0  0  0  0  0  0  0
  -36.5676    2.4566  -44.8376 C   0  0  0  0  0  0  0  0  0  0  0  0
  -37.7115    2.0740  -44.7046 O   0  0  0  0  0  0  0  0  0  0  0  0
  -36.1978    3.6577  -44.3510 N   0  0  0  0  0  0  0  0  0  0  0  0
  -37.1581    4.5094  -43.6327 C   0  0  0  0  0  0  0  0  0  0  0  0
  -36.5306    4.9339  -42.3006 C   0  0  0  0  0  0  0  0  0  0  0  0
  -35.2217    5.5509  -42.5543 N   0  0  0  0  0  0  0  0  0  0  0  0
  -34.2879    4.5906  -43.1573 C   0  0  0  0  0  0  0  0  0  0  0  0
  -34.8218    4.1492  -44.5189 C   0  0  0  0  0  0  0  0  0  0  0  0
  -34.5719    6.2204  -41.1212 X   0  0  0  0  0  0  0  0  0  0  0  0
  1  2  1  0  0  0  0
  2  3  1  0  0  0  0
  3  4  1  0  0  0  0
  4  5  2  0  0  0  0
  4  6  1  0  0  0  0
  6  7  2  0  0  0  0
  6  8  1  0  0  0  0
  8  9  1  0  0  0  0
  8 13  1  0  0  0  0
  9 10  1  0  0  0  0
 10 11  1  0  0  0  0
 11 12  1  0  0  0  0
 11 14  1  0  0  0  0
 12 13  1  0  0  0  0
M  END
> <Index>
7592

> <PropertyFieldDistance>
nan

$$$$
12520274
BBcorina  12272117083D 1   1.00000     0.00000 
CORINA 4.3.0 0026  30.10.2019
 10 10  0  0  0  0  0  0  0  0999 V2000
  -34.7422    1.7910  -46.2654 F   0  0  0  0  0  0  0  0  0  0  0  0
  -36.1059    1.6538  -45.9847 C   0  0  0  0  0  0  0  0  0  0  0  0
  -36.3933    2.1751  -44.5752 C   0  0  0  0  0  0  0  0  0  0  0  0
  -36.0173    3.5927  -44.4913 N   0  0  0  0  0  0  0  0  0  0  0  0
  -36.5016    0.1768  -46.0754 C   0  0  0  0  0  0  0  0  0  0  0  0
  -36.2843   -0.3146  -47.5089 C   0  0  0  0  0  0  0  0  0  0  0  0
  -37.0489    0.4910  -48.4082 O   0  0  0  0  0  0  0  0  0  0  0  0
  -36.6901    1.8742  -48.4012 C   0  0  0  0  0  0  0  0  0  0  0  0
  -36.9219    2.4550  -47.0037 C   0  0  0  0  0  0  0  0  0  0  0  0
  -36.3231    4.2163  -42.9287 X   0  0  0  0  0  0  0  0  0  0  0  0
  1  2  1  0  0  0  0
  2  3  1  0  0  0  0
  2  5  1  0  0  0  0
  2  9  1  0  0  0  0
  3  4  1  0  0  0  0
  4 10  1  0  0  0  0
  5  6  1  0  0  0  0
  6  7  1  0  0  0  0
  7  8  1  0  0  0  0
  8  9  1  0  0  0  0
M  END
> <Index>
7610

> <PropertyFieldDistance>
nan

$$$$
8901110
BBcorina  12272117083D 1   1.00000     0.00000 
CORINA 4.3.0 0026  30.10.2019
 11 12  0  0  0  0  0  0  0  0999 V2000
  -36.0228    3.9185  -44.5929 N   0  0  0  0  0  0  0  0  0  0  0  0
  -36.9656    4.0178  -43.4692 C   0  0  0  0  0  0  0  0  0  0  0  0
  -36.6324    5.2577  -42.6350 C   0  0  0  0  0  0  0  0  0  0  0  0
  -35.2765    5.1712  -42.1847 O   0  0  0  0  0  0  0  0  0  0  0  0
  -34.3279    5.0428  -43.2375 C   0  0  0  0  0  0  0  0  0  0  0  0
  -32.9025    4.9391  -42.6643 C   0  0  0  0  0  0  0  0  0  0  0  0
  -32.1762    6.1717  -43.2506 C   0  0  0  0  0  0  0  0  0  0  0  0
  -33.2301    7.1128  -43.5523 O   0  0  0  0  0  0  0  0  0  0  0  0
  -34.3075    6.3189  -44.0986 C   0  0  0  0  0  0  0  0  0  0  0  0
  -34.6385    3.8268  -44.1031 C   0  0  0  0  0  0  0  0  0  0  0  0
  -36.4061    2.5899  -45.5989 X   0  0  0  0  0  0  0  0  0  0  0  0
  1  2  1  0  0  0  0
  1 10  1  0  0  0  0
  1 11  1  0  0  0  0
  2  3  1  0  0  0  0
  3  4  1  0  0  0  0
  4  5  1  0  0  0  0
  5  6  1  0  0  0  0
  5  9  1  0  0  0  0
  5 10  1  0  0  0  0
  6  7  1  0  0  0  0
  7  8  1  0  0  0  0
  8  9  1  0  0  0  0
M  END
> <Index>
7611

> <PropertyFieldDistance>
nan

$$$$
8626128
BBcorina  12272117083D 1   1.00000     0.00000 
CORINA 4.3.0 0026  30.10.2019
 11 11  0  0  0  0  0  0  0  0999 V2000
  -36.6714    1.3319  -46.8883 N   0  0  0  0  0  0  0  0  0  0  0  0
  -36.3735    2.4844  -46.0274 C   0  0  0  0  0  0  0  0  0  0  0  0
  -36.1579    2.0053  -44.5905 C   0  0  0  0  0  0  0  0  0  0  0  0
  -35.8600    3.1577  -43.7295 N   0  0  0  0  0  0  0  0  0  0  0  0
  -36.9344    4.1611  -43.8010 C   0  0  0  0  0  0  0  0  0  0  0  0
  -36.7344    5.1757  -42.6735 C   0  0  0  0  0  0  0  0  0  0  0  0
  -35.3591    5.6662  -42.6799 N   0  0  0  0  0  0  0  0  0  0  0  0
  -34.3633    5.0295  -43.3051 C   0  0  0  0  0  0  0  0  0  0  0  0
  -33.2439    5.4906  -43.2340 O   0  0  0  0  0  0  0  0  0  0  0  0
  -34.5731    3.7667  -44.0917 C   0  0  0  0  0  0  0  0  0  0  0  0
  -36.9198    1.8242  -48.5070 X   0  0  0  0  0  0  0  0  0  0  0  0
  1  2  1  0  0  0  0
  1 11  1  0  0  0  0
  2  3  1  0  0  0  0
  3  4  1  0  0  0  0
  4  5  1  0  0  0  0
  4 10  1  0  0  0  0
  5  6  1  0  0  0  0
  6  7  1  0  0  0  0
  7  8  1  0  0  0  0
  8  9  2  0  0  0  0
  8 10  1  0  0  0  0
M  END
> <Index>
7612

> <PropertyFieldDistance>
nan

$$$$
17547992
BBcorina  12272117083D 1   1.00000     0.00000 
CORINA 4.3.0 0026  30.10.2019
 10 10  0  0  0  0  0  0  0  0999 V2000
  -39.7239    1.6575  -42.4334 C   0  0  0  0  0  0  0  0  0  0  0  0
  -38.7197    2.3129  -43.2819 N   0  0  0  0  0  0  0  0  0  0  0  0
  -38.1548    3.4927  -42.6133 C   0  0  0  0  0  0  0  0  0  0  0  0
  -37.1153    4.1469  -43.5256 C   0  0  0  0  0  0  0  0  0  0  0  0
  -36.3861    5.2931  -42.7813 C   0  0  0  0  0  0  0  0  0  0  0  0
  -35.0486    5.3737  -43.5633 C   0  0  0  0  0  0  0  0  0  0  0  0
  -34.7629    3.8988  -43.9162 C   0  0  0  0  0  0  0  0  0  0  0  0
  -36.0497    3.1808  -43.8676 N   0  0  0  0  0  0  0  0  0  0  0  0
  -36.3312    2.5176  -45.1477 C   0  0  0  0  0  0  0  0  0  0  0  0
  -39.3799    2.7283  -44.8035 X   0  0  0  0  0  0  0  0  0  0  0  0
  1  2  1  0  0  0  0
  2  3  1  0  0  0  0
  2 10  1  0  0  0  0
  3  4  1  0  0  0  0
  4  5  1  0  0  0  0
  4  8  1  0  0  0  0
  5  6  1  0  0  0  0
  6  7  1  0  0  0  0
  7  8  1  0  0  0  0
  8  9  1  0  0  0  0
M  END
> <Index>
7621

> <PropertyFieldDistance>
nan

$$$$
11686220
BBcorina  12272117083D 1   1.00000     0.00000 
CORINA 4.3.0 0026  30.10.2019
  9  9  0  0  0  0  0  0  0  0999 V2000
  -36.3320    2.3768  -45.0202 C   0  0  0  0  0  0  0  0  0  0  0  0
  -35.9918    3.5098  -44.1562 N   0  0  0  0  0  0  0  0  0  0  0  0
  -37.0749    4.2373  -43.5009 C   0  0  0  0  0  0  0  0  0  0  0  0
  -36.5247    5.0541  -42.3301 C   0  0  0  0  0  0  0  0  0  0  0  0
  -35.3733    5.8400  -42.8023 N   0  0  0  0  0  0  0  0  0  0  0  0
  -34.2453    4.9509  -43.1108 C   0  0  0  0  0  0  0  0  0  0  0  0
  -34.7030    3.8316  -44.0025 C   0  0  0  0  0  0  0  0  0  0  0  0
  -33.8685    3.1932  -44.6086 O   0  0  0  0  0  0  0  0  0  0  0  0
  -34.9246    7.0222  -41.6511 X   0  0  0  0  0  0  0  0  0  0  0  0
  1  2  1  0  0  0  0
  2  3  1  0  0  0  0
  2  7  1  0  0  0  0
  3  4  1  0  0  0  0
  4  5  1  0  0  0  0
  5  6  1  0  0  0  0
  5  9  1  0  0  0  0
  6  7  1  0  0  0  0
  7  8  2  0  0  0  0
M  END
> <Index>
7626

> <PropertyFieldDistance>
nan

$$$$
5054838
BBcorina  12272117083D 1   1.00000     0.00000 
CORINA 4.3.0 0026  30.10.2019
 10 10  0  0  0  0  0  0  0  0999 V2000
  -32.1697    6.5057  -41.9309 C   0  0  0  0  0  0  0  0  0  0  0  0
  -33.6555    6.8612  -41.8488 C   0  0  0  0  0  0  0  0  0  0  0  0
  -34.4943    5.6331  -42.2080 C   0  0  0  0  0  0  0  0  0  0  0  0
  -35.9048    5.9490  -42.0111 C   0  0  0  0  0  0  0  0  0  0  0  0
  -36.8194    4.7427  -42.3102 C   0  0  0  0  0  0  0  0  0  0  0  0
  -36.9707    4.6167  -43.8017 C   0  0  0  0  0  0  0  0  0  0  0  0
  -35.9918    3.6824  -44.4012 N   0  0  0  0  0  0  0  0  0  0  0  0
  -34.6188    3.7972  -43.8607 C   0  0  0  0  0  0  0  0  0  0  0  0
  -34.1865    5.2246  -43.6639 C   0  0  0  0  0  0  0  0  0  0  0  0
  -36.5518    2.0690  -44.3142 X   0  0  0  0  0  0  0  0  0  0  0  0
  1  2  1  0  0  0  0
  2  3  1  0  0  0  0
  3  4  1  0  0  0  0
  3  9  1  0  0  0  0
  4  5  1  0  0  0  0
  5  6  1  0  0  0  0
  6  7  1  0  0  0  0
  7  8  1  0  0  0  0
  7 10  1  0  0  0  0
  8  9  1  0  0  0  0
M  END
> <Index>
7638

> <PropertyFieldDistance>
nan

$$$$
5056240
BBcorina  12272117083D 1   1.00000     0.00000 
CORINA 4.3.0 0026  30.10.2019
 10 10  0  0  0  0  0  0  0  0999 V2000
  -34.2097    0.0596  -42.6479 C   0  0  0  0  0  0  0  0  0  0  0  0
  -35.4883    1.1702  -41.9982 S   0  0  0  0  0  0  0  0  0  0  0  0
  -35.3817    2.6055  -43.1024 C   0  0  0  0  0  0  0  0  0  0  0  0
  -35.7827    2.1898  -44.5193 C   0  0  0  0  0  0  0  0  0  0  0  0
  -35.6927    3.4003  -45.4506 C   0  0  0  0  0  0  0  0  0  0  0  0
  -36.6372    4.4969  -44.9543 C   0  0  0  0  0  0  0  0  0  0  0  0
  -36.2362    4.9126  -43.5375 C   0  0  0  0  0  0  0  0  0  0  0  0
  -36.3262    3.7021  -42.6061 C   0  0  0  0  0  0  0  0  0  0  0  0
  -34.8581    5.4211  -43.5479 N   0  0  0  0  0  0  0  0  0  0  0  0
  -34.5875    6.4852  -42.2370 X   0  0  0  0  0  0  0  0  0  0  0  0
  1  2  1  0  0  0  0
  2  3  1  0  0  0  0
  3  4  1  0  0  0  0
  3  8  1  0  0  0  0
  4  5  1  0  0  0  0
  5  6  1  0  0  0  0
  6  7  1  0  0  0  0
  7  8  1  0  0  0  0
  7  9  1  0  0  0  0
  9 10  1  0  0  0  0
M  END
> <Index>
7639

> <PropertyFieldDistance>
nan

$$$$
5063982
BBcorina  12272117083D 1   1.00000     0.00000 
CORINA 4.3.0 0026  30.10.2019
 13 14  0  0  0  0  0  0  0  0999 V2000
  -35.5328   -1.1684  -45.3193 C   0  0  0  0  0  0  0  0  0  0  0  0
  -36.1019    0.1810  -45.2798 N   0  0  0  0  0  0  0  0  0  0  0  0
  -37.2976    0.5522  -45.7837 C   0  0  0  0  0  0  0  0  0  0  0  0
  -37.4552    1.8744  -45.5469 C   0  0  0  0  0  0  0  0  0  0  0  0
  -36.3114    2.3305  -44.8717 C   0  0  0  0  0  0  0  0  0  0  0  0
  -35.5027    1.3102  -44.7072 N   0  0  0  0  0  0  0  0  0  0  0  0
  -36.0779    3.6424  -44.4429 N   0  0  0  0  0  0  0  0  0  0  0  0
  -37.0882    4.0617  -43.4381 C   0  0  0  0  0  0  0  0  0  0  0  0
  -36.4007    5.2489  -42.7182 C   0  0  0  0  0  0  0  0  0  0  0  0
  -34.9220    4.8026  -42.6505 C   0  0  0  0  0  0  0  0  0  0  0  0
  -34.7669    3.7538  -43.7674 C   0  0  0  0  0  0  0  0  0  0  0  0
  -34.0328    5.9455  -42.8973 N   0  0  0  0  0  0  0  0  0  0  0  0
  -34.4674    6.7607  -44.3364 X   0  0  0  0  0  0  0  0  0  0  0  0
  1  2  1  0  0  0  0
  2  3  1  0  0  0  0
  2  6  1  0  0  0  0
  3  4  2  0  0  0  0
  4  5  1  0  0  0  0
  5  6  2  0  0  0  0
  5  7  1  0  0  0  0
  7  8  1  0  0  0  0
  7 11  1  0  0  0  0
  8  9  1  0  0  0  0
  9 10  1  0  0  0  0
 10 11  1  0  0  0  0
 10 12  1  0  0  0  0
 12 13  1  0  0  0  0
M  END
> <Index>
7641

> <PropertyFieldDistance>
nan

$$$$
5063896
BBcorina  12272117083D 1   1.00000     0.00000 
CORINA 4.3.0 0026  30.10.2019
 14 15  0  0  0  0  0  0  0  0999 V2000
  -35.4256   -0.0780  -47.5905 C   0  0  0  0  0  0  0  0  0  0  0  0
  -36.0383    0.8463  -46.6332 N   0  0  0  0  0  0  0  0  0  0  0  0
  -35.3774    1.7218  -45.8324 C   0  0  0  0  0  0  0  0  0  0  0  0
  -36.3061    2.3884  -45.1000 C   0  0  0  0  0  0  0  0  0  0  0  0
  -37.5701    1.8998  -45.4617 C   0  0  0  0  0  0  0  0  0  0  0  0
  -37.4094    0.9835  -46.3816 N   0  0  0  0  0  0  0  0  0  0  0  0
  -36.0462    3.3878  -44.1434 N   0  0  0  0  0  0  0  0  0  0  0  0
  -37.0819    4.0849  -43.3720 C   0  0  0  0  0  0  0  0  0  0  0  0
  -36.3933    5.3501  -42.8041 C   0  0  0  0  0  0  0  0  0  0  0  0
  -34.9123    4.9073  -42.7653 C   0  0  0  0  0  0  0  0  0  0  0  0
  -34.5716    4.3674  -41.4422 N   0  0  0  0  0  0  0  0  0  0  0  0
  -34.8176    3.8259  -43.8189 C   0  0  0  0  0  0  0  0  0  0  0  0
  -33.7832    3.4136  -44.3003 O   0  0  0  0  0  0  0  0  0  0  0  0
  -32.9124    4.5942  -41.0965 X   0  0  0  0  0  0  0  0  0  0  0  0
  1  2  1  0  0  0  0
  2  3  1  0  0  0  0
  2  6  1  0  0  0  0
  3  4  2  0  0  0  0
  4  5  1  0  0  0  0
  4  7  1  0  0  0  0
  5  6  2  0  0  0  0
  7  8  1  0  0  0  0
  7 12  1  0  0  0  0
  8  9  1  0  0  0  0
  9 10  1  0  0  0  0
 10 11  1  0  0  0  0
 10 12  1  0  0  0  0
 11 14  1  0  0  0  0
 12 13  2  0  0  0  0
M  END
> <Index>
7650

> <PropertyFieldDistance>
nan

$$$$
5064848
BBcorina  12272117083D 1   1.00000     0.00000 
CORINA 4.3.0 0026  30.10.2019
 12 13  0  0  0  0  0  0  0  0999 V2000
  -35.9665    3.4658  -44.1706 N   0  0  0  0  0  0  0  0  0  0  0  0
  -36.9745    4.4861  -43.8390 C   0  0  0  0  0  0  0  0  0  0  0  0
  -36.6726    5.0324  -42.4413 C   0  0  0  0  0  0  0  0  0  0  0  0
  -35.2196    5.4061  -42.3462 C   0  0  0  0  0  0  0  0  0  0  0  0
  -34.3190    4.9859  -43.2133 C   0  0  0  0  0  0  0  0  0  0  0  0
  -34.6546    4.0934  -44.3735 C   0  0  0  0  0  0  0  0  0  0  0  0
  -34.7858    6.2805  -41.2453 C   0  0  0  0  0  0  0  0  0  0  0  0
  -34.2916    7.5292  -41.3892 C   0  0  0  0  0  0  0  0  0  0  0  0
  -33.9496    8.1522  -40.2079 C   0  0  0  0  0  0  0  0  0  0  0  0
  -34.1674    7.4317  -39.1032 C   0  0  0  0  0  0  0  0  0  0  0  0
  -34.8374    5.8646  -39.5370 S   0  0  0  0  0  0  0  0  0  0  0  0
  -35.8894    2.2635  -42.9571 X   0  0  0  0  0  0  0  0  0  0  0  0
  1  2  1  0  0  0  0
  1  6  1  0  0  0  0
  1 12  1  0  0  0  0
  2  3  1  0  0  0  0
  3  4  1  0  0  0  0
  4  5  2  0  0  0  0
  4  7  1  0  0  0  0
  5  6  1  0  0  0  0
  7  8  2  0  0  0  0
  7 11  1  0  0  0  0
  8  9  1  0  0  0  0
  9 10  2  0  0  0  0
 10 11  1  0  0  0  0
M  END
> <Index>
7652

> <PropertyFieldDistance>
nan

$$$$
5532338
BBcorina  12272117083D 1   1.00000     0.00000 
CORINA 4.3.0 0026  30.10.2019
 10 10  0  0  0  0  0  0  0  0999 V2000
  -38.0197    0.1827  -45.8673 O   0  0  0  0  0  0  0  0  0  0  0  0
  -36.6117    0.2152  -46.1093 C   0  0  0  0  0  0  0  0  0  0  0  0
  -36.3243   -0.3061  -47.5188 C   0  0  0  0  0  0  0  0  0  0  0  0
  -34.8168   -0.2712  -47.7779 C   0  0  0  0  0  0  0  0  0  0  0  0
  -34.3110    1.1674  -47.6532 C   0  0  0  0  0  0  0  0  0  0  0  0
  -34.5984    1.6886  -46.2437 C   0  0  0  0  0  0  0  0  0  0  0  0
  -36.1059    1.6538  -45.9847 C   0  0  0  0  0  0  0  0  0  0  0  0
  -36.3933    2.1751  -44.5752 C   0  0  0  0  0  0  0  0  0  0  0  0
  -36.0173    3.5927  -44.4913 N   0  0  0  0  0  0  0  0  0  0  0  0
  -36.3229    4.2163  -42.9286 X   0  0  0  0  0  0  0  0  0  0  0  0
  1  2  1  0  0  0  0
  2  3  1  0  0  0  0
  2  7  1  0  0  0  0
  3  4  1  0  0  0  0
  4  5  1  0  0  0  0
  5  6  1  0  0  0  0
  6  7  1  0  0  0  0
  7  8  1  0  0  0  0
  8  9  1  0  0  0  0
  9 10  1  0  0  0  0
M  END
> <Index>
7655

> <PropertyFieldDistance>
nan

$$$$
5350462
BBcorina  12272117083D 1   1.00000     0.00000 
CORINA 4.3.0 0026  30.10.2019
 10 10  0  0  0  0  0  0  0  0999 V2000
  -33.2294    6.3271  -44.3412 C   0  0  0  0  0  0  0  0  0  0  0  0
  -34.6306    6.3258  -43.9002 N   0  0  0  0  0  0  0  0  0  0  0  0
  -34.9171    5.1551  -43.0604 C   0  0  0  0  0  0  0  0  0  0  0  0
  -36.3871    5.1800  -42.5738 C   0  0  0  0  0  0  0  0  0  0  0  0
  -37.0866    4.3197  -43.6494 C   0  0  0  0  0  0  0  0  0  0  0  0
  -36.0449    3.4349  -44.1841 N   0  0  0  0  0  0  0  0  0  0  0  0
  -36.3100    2.2194  -44.9580 C   0  0  0  0  0  0  0  0  0  0  0  0
  -34.8165    3.8831  -43.8730 C   0  0  0  0  0  0  0  0  0  0  0  0
  -33.7784    3.3461  -44.1970 O   0  0  0  0  0  0  0  0  0  0  0  0
  -35.0168    7.7766  -43.0815 X   0  0  0  0  0  0  0  0  0  0  0  0
  1  2  1  0  0  0  0
  2  3  1  0  0  0  0
  2 10  1  0  0  0  0
  3  4  1  0  0  0  0
  3  8  1  0  0  0  0
  4  5  1  0  0  0  0
  5  6  1  0  0  0  0
  6  7  1  0  0  0  0
  6  8  1  0  0  0  0
  8  9  2  0  0  0  0
M  END
> <Index>
7663

> <PropertyFieldDistance>
nan

$$$$
6361222
BBcorina  12272117083D 1   1.00000     0.00000 
CORINA 4.3.0 0026  30.10.2019
 10 10  0  0  0  0  0  0  0  0999 V2000
  -34.6970    1.6887  -46.2211 O   0  0  0  0  0  0  0  0  0  0  0  0
  -36.1059    1.6538  -45.9847 C   0  0  0  0  0  0  0  0  0  0  0  0
  -36.3933    2.1751  -44.5753 C   0  0  0  0  0  0  0  0  0  0  0  0
  -36.0173    3.5927  -44.4913 N   0  0  0  0  0  0  0  0  0  0  0  0
  -36.5990    0.2143  -46.0982 C   0  0  0  0  0  0  0  0  0  0  0  0
  -36.0822   -0.4142  -47.3951 C   0  0  0  0  0  0  0  0  0  0  0  0
  -36.7740    0.4990  -48.8061 S   0  0  0  0  0  0  0  0  0  0  0  0
  -36.3175    2.2142  -48.4153 C   0  0  0  0  0  0  0  0  0  0  0  0
  -36.8086    2.5463  -47.0035 C   0  0  0  0  0  0  0  0  0  0  0  0
  -36.3229    4.2163  -42.9287 X   0  0  0  0  0  0  0  0  0  0  0  0
  1  2  1  0  0  0  0
  2  3  1  0  0  0  0
  2  5  1  0  0  0  0
  2  9  1  0  0  0  0
  3  4  1  0  0  0  0
  4 10  1  0  0  0  0
  5  6  1  0  0  0  0
  6  7  1  0  0  0  0
  7  8  1  0  0  0  0
  8  9  1  0  0  0  0
M  END
> <Index>
7665

> <PropertyFieldDistance>
nan

$$$$
5064976
BBcorina  12272117083D 1   1.00000     0.00000 
CORINA 4.3.0 0026  30.10.2019
 13 14  0  0  0  0  0  0  0  0999 V2000
  -38.2011   -0.3289  -46.4417 C   0  0  0  0  0  0  0  0  0  0  0  0
  -37.2498    0.5532  -45.7609 N   0  0  0  0  0  0  0  0  0  0  0  0
  -37.4168    1.8821  -45.5269 C   0  0  0  0  0  0  0  0  0  0  0  0
  -36.3124    2.3246  -44.8741 C   0  0  0  0  0  0  0  0  0  0  0  0
  -35.4469    1.2344  -44.7051 C   0  0  0  0  0  0  0  0  0  0  0  0
  -36.0096    0.1760  -45.2302 N   0  0  0  0  0  0  0  0  0  0  0  0
  -36.0776    3.6440  -44.4425 N   0  0  0  0  0  0  0  0  0  0  0  0
  -37.0880    4.0632  -43.4378 C   0  0  0  0  0  0  0  0  0  0  0  0
  -36.4004    5.2501  -42.7173 C   0  0  0  0  0  0  0  0  0  0  0  0
  -34.9219    4.8038  -42.6497 C   0  0  0  0  0  0  0  0  0  0  0  0
  -34.7667    3.7553  -43.7667 C   0  0  0  0  0  0  0  0  0  0  0  0
  -34.0325    5.9468  -42.8960 N   0  0  0  0  0  0  0  0  0  0  0  0
  -34.4669    6.7622  -44.3349 X   0  0  0  0  0  0  0  0  0  0  0  0
  1  2  1  0  0  0  0
  2  3  1  0  0  0  0
  2  6  1  0  0  0  0
  3  4  2  0  0  0  0
  4  5  1  0  0  0  0
  4  7  1  0  0  0  0
  5  6  2  0  0  0  0
  7  8  1  0  0  0  0
  7 11  1  0  0  0  0
  8  9  1  0  0  0  0
  9 10  1  0  0  0  0
 10 11  1  0  0  0  0
 10 12  1  0  0  0  0
 12 13  1  0  0  0  0
M  END
> <Index>
7666

> <PropertyFieldDistance>
nan

$$$$
14521260
BBcorina  12272117083D 1   1.00000     0.00000 
CORINA 4.3.0 0026  30.10.2019
 11 12  0  0  0  0  0  0  0  0999 V2000
  -34.8792    1.5318  -40.8703 N   0  0  0  0  0  0  0  0  0  0  0  0
  -35.6631    2.0539  -41.9977 C   0  0  0  0  0  0  0  0  0  0  0  0
  -35.6601    3.5830  -41.9548 C   0  0  0  0  0  0  0  0  0  0  0  0
  -36.5135    4.1266  -43.1044 C   0  0  0  0  0  0  0  0  0  0  0  0
  -35.9623    3.6059  -44.4301 C   0  0  0  0  0  0  0  0  0  0  0  0
  -36.6306    4.2327  -45.6603 C   0  0  0  0  0  0  0  0  0  0  0  0
  -35.2310    4.2760  -46.2975 C   0  0  0  0  0  0  0  0  0  0  0  0
  -34.6648    4.2980  -44.8672 C   0  0  0  0  0  0  0  0  0  0  0  0
  -35.8882    2.0815  -44.4862 C   0  0  0  0  0  0  0  0  0  0  0  0
  -35.0459    1.5737  -43.3124 C   0  0  0  0  0  0  0  0  0  0  0  0
  -33.2913    2.1663  -40.8821 X   0  0  0  0  0  0  0  0  0  0  0  0
  1  2  1  0  0  0  0
  1 11  1  0  0  0  0
  2  3  1  0  0  0  0
  2 10  1  0  0  0  0
  3  4  1  0  0  0  0
  4  5  1  0  0  0  0
  5  6  1  0  0  0  0
  5  8  1  0  0  0  0
  5  9  1  0  0  0  0
  6  7  1  0  0  0  0
  7  8  1  0  0  0  0
  9 10  1  0  0  0  0
M  END
> <Index>
7687

> <PropertyFieldDistance>
nan

$$$$
6008376
BBcorina  12272117083D 1   1.00000     0.00000 
CORINA 4.3.0 0026  30.10.2019
 13 14  0  0  0  0  0  0  0  0999 V2000
  -35.2516    5.7272  -42.7086 N   0  0  0  0  0  0  0  0  0  0  0  0
  -36.5104    5.0792  -42.3144 C   0  0  0  0  0  0  0  0  0  0  0  0
  -37.0926    4.3292  -43.5148 C   0  0  0  0  0  0  0  0  0  0  0  0
  -36.1183    3.3364  -43.9885 N   0  0  0  0  0  0  0  0  0  0  0  0
  -36.6706    2.5428  -45.0944 C   0  0  0  0  0  0  0  0  0  0  0  0
  -35.5753    1.7129  -45.7132 C   0  0  0  0  0  0  0  0  0  0  0  0
  -35.2551    0.3701  -45.4080 C   0  0  0  0  0  0  0  0  0  0  0  0
  -34.2112    0.0890  -46.2242 C   0  0  0  0  0  0  0  0  0  0  0  0
  -33.9722    1.2021  -46.9317 O   0  0  0  0  0  0  0  0  0  0  0  0
  -34.7373    2.0903  -46.6351 N   0  0  0  0  0  0  0  0  0  0  0  0
  -34.8596    3.9845  -44.3827 C   0  0  0  0  0  0  0  0  0  0  0  0
  -34.2773    4.7344  -43.1823 C   0  0  0  0  0  0  0  0  0  0  0  0
  -34.6088    6.6511  -41.4213 X   0  0  0  0  0  0  0  0  0  0  0  0
  1  2  1  0  0  0  0
  1 12  1  0  0  0  0
  1 13  1  0  0  0  0
  2  3  1  0  0  0  0
  3  4  1  0  0  0  0
  4  5  1  0  0  0  0
  4 11  1  0  0  0  0
  5  6  1  0  0  0  0
  6  7  1  0  0  0  0
  6 10  2  0  0  0  0
  7  8  2  0  0  0  0
  8  9  1  0  0  0  0
  9 10  1  0  0  0  0
 11 12  1  0  0  0  0
M  END
> <Index>
7720

> <PropertyFieldDistance>
nan

$$$$
5454298
BBcorina  12272117083D 1   1.00000     0.00000 
CORINA 4.3.0 0026  30.10.2019
 11 11  0  0  0  0  0  0  0  0999 V2000
  -37.4117    4.1608  -40.6488 F   0  0  0  0  0  0  0  0  0  0  0  0
  -37.5657    5.3164  -41.4221 C   0  0  0  0  0  0  0  0  0  0  0  0
  -37.2516    6.4398  -40.6497 F   0  0  0  0  0  0  0  0  0  0  0  0
  -38.8901    5.4093  -41.8631 F   0  0  0  0  0  0  0  0  0  0  0  0
  -36.6293    5.2502  -42.6303 C   0  0  0  0  0  0  0  0  0  0  0  0
  -36.9723    4.0211  -43.4763 C   0  0  0  0  0  0  0  0  0  0  0  0
  -36.0215    3.9203  -44.5930 N   0  0  0  0  0  0  0  0  0  0  0  0
  -34.6419    3.8204  -44.0951 C   0  0  0  0  0  0  0  0  0  0  0  0
  -34.3222    5.0515  -43.2429 C   0  0  0  0  0  0  0  0  0  0  0  0
  -35.2751    5.1506  -42.1812 O   0  0  0  0  0  0  0  0  0  0  0  0
  -36.4046    2.5974  -45.6065 X   0  0  0  0  0  0  0  0  0  0  0  0
  1  2  1  0  0  0  0
  2  3  1  0  0  0  0
  2  4  1  0  0  0  0
  2  5  1  0  0  0  0
  5  6  1  0  0  0  0
  5 10  1  0  0  0  0
  6  7  1  0  0  0  0
  7  8  1  0  0  0  0
  7 11  1  0  0  0  0
  8  9  1  0  0  0  0
  9 10  1  0  0  0  0
M  END
> <Index>
7731

> <PropertyFieldDistance>
nan

$$$$
5182566
BBcorina  12272117083D 1   1.00000     0.00000 
CORINA 4.3.0 0026  30.10.2019
 16 17  0  0  0  0  0  0  0  0999 V2000
  -34.8879    7.0692  -42.4931 N   0  0  0  0  0  0  0  0  0  0  0  0
  -35.1837    5.6363  -42.6259 C   0  0  0  0  0  0  0  0  0  0  0  0
  -36.6756    5.4480  -42.9101 C   0  0  0  0  0  0  0  0  0  0  0  0
  -36.9866    3.9515  -43.0136 C   0  0  0  0  0  0  0  0  0  0  0  0
  -36.1002    3.3528  -44.0209 N   0  0  0  0  0  0  0  0  0  0  0  0
  -34.6497    3.5460  -43.8895 C   0  0  0  0  0  0  0  0  0  0  0  0
  -34.3651    5.0516  -43.7792 C   0  0  0  0  0  0  0  0  0  0  0  0
  -36.6077    2.6355  -45.0428 C   0  0  0  0  0  0  0  0  0  0  0  0
  -37.8095    2.5934  -45.2178 O   0  0  0  0  0  0  0  0  0  0  0  0
  -35.7005    1.8985  -45.9529 C   0  0  0  0  0  0  0  0  0  0  0  0
  -36.1995    1.3174  -47.1176 C   0  0  0  0  0  0  0  0  0  0  0  0
  -35.3865    0.6607  -47.9260 N   0  0  0  0  0  0  0  0  0  0  0  0
  -34.1022    0.5592  -47.6337 C   0  0  0  0  0  0  0  0  0  0  0  0
  -33.6033    1.1320  -46.4723 C   0  0  0  0  0  0  0  0  0  0  0  0
  -34.4072    1.7887  -45.6607 N   0  0  0  0  0  0  0  0  0  0  0  0
  -35.3843    7.9290  -43.8853 X   0  0  0  0  0  0  0  0  0  0  0  0
  1  2  1  0  0  0  0
  1 16  1  0  0  0  0
  2  3  1  0  0  0  0
  2  7  1  0  0  0  0
  3  4  1  0  0  0  0
  4  5  1  0  0  0  0
  5  6  1  0  0  0  0
  5  8  1  0  0  0  0
  6  7  1  0  0  0  0
  8  9  2  0  0  0  0
  8 10  1  0  0  0  0
 10 11  2  0  0  0  0
 10 15  1  0  0  0  0
 11 12  1  0  0  0  0
 12 13  2  0  0  0  0
 13 14  1  0  0  0  0
 14 15  2  0  0  0  0
M  END
> <Index>
7732

> <PropertyFieldDistance>
nan

$$$$
13025952
BBcorina  12272117083D 1   1.00000     0.00000 
CORINA 4.3.0 0026  30.10.2019
 11 11  0  0  0  0  0  0  0  0999 V2000
  -33.1112    5.5268  -42.6122 N   0  0  0  0  0  0  0  0  0  0  0  0
  -34.3862    5.2731  -43.2961 C   0  0  0  0  0  0  0  0  0  0  0  0
  -35.5464    5.5859  -42.3471 C   0  0  0  0  0  0  0  0  0  0  0  0
  -36.8692    5.2620  -43.0470 C   0  0  0  0  0  0  0  0  0  0  0  0
  -36.8691    3.7920  -43.4724 C   0  0  0  0  0  0  0  0  0  0  0  0
  -35.7414    3.5439  -44.3796 N   0  0  0  0  0  0  0  0  0  0  0  0
  -35.7893    2.1780  -44.9178 C   0  0  0  0  0  0  0  0  0  0  0  0
  -36.9723    2.0320  -45.7816 C   0  0  0  0  0  0  0  0  0  0  0  0
  -37.9157    1.9157  -46.4705 C   0  0  0  0  0  0  0  0  0  0  0  0
  -34.4580    3.8028  -43.7145 C   0  0  0  0  0  0  0  0  0  0  0  0
  -32.5967    7.1396  -42.8532 X   0  0  0  0  0  0  0  0  0  0  0  0
  1  2  1  0  0  0  0
  1 11  1  0  0  0  0
  2  3  1  0  0  0  0
  2 10  1  0  0  0  0
  3  4  1  0  0  0  0
  4  5  1  0  0  0  0
  5  6  1  0  0  0  0
  6  7  1  0  0  0  0
  6 10  1  0  0  0  0
  7  8  1  0  0  0  0
  8  9  3  0  0  0  0
M  END
> <Index>
7749

> <PropertyFieldDistance>
nan

$$$$
5359796
BBcorina  12272117083D 1   1.00000     0.00000 
CORINA 4.3.0 0026  30.10.2019
 13 13  0  0  0  0  0  0  0  0999 V2000
  -37.5063    1.2691  -44.3569 F   0  0  0  0  0  0  0  0  0  0  0  0
  -36.3557    1.3259  -45.1508 C   0  0  0  0  0  0  0  0  0  0  0  0
  -36.5177    0.4978  -46.2666 F   0  0  0  0  0  0  0  0  0  0  0  0
  -35.2532    0.8941  -44.4057 F   0  0  0  0  0  0  0  0  0  0  0  0
  -36.1261    2.7662  -45.6135 C   0  0  0  0  0  0  0  0  0  0  0  0
  -35.9565    3.6334  -44.4451 N   0  0  0  0  0  0  0  0  0  0  0  0
  -37.0556    4.3224  -43.7587 C   0  0  0  0  0  0  0  0  0  0  0  0
  -36.4877    4.7356  -42.3827 C   0  0  0  0  0  0  0  0  0  0  0  0
  -34.9732    4.8161  -42.6763 C   0  0  0  0  0  0  0  0  0  0  0  0
  -34.7742    3.8998  -43.8635 C   0  0  0  0  0  0  0  0  0  0  0  0
  -33.7044    3.4647  -44.2336 O   0  0  0  0  0  0  0  0  0  0  0  0
  -37.0159    6.0417  -41.9667 N   0  0  0  0  0  0  0  0  0  0  0  0
  -36.6947    7.2368  -43.1467 X   0  0  0  0  0  0  0  0  0  0  0  0
  1  2  1  0  0  0  0
  2  3  1  0  0  0  0
  2  4  1  0  0  0  0
  2  5  1  0  0  0  0
  5  6  1  0  0  0  0
  6  7  1  0  0  0  0
  6 10  1  0  0  0  0
  7  8  1  0  0  0  0
  8  9  1  0  0  0  0
  8 12  1  0  0  0  0
  9 10  1  0  0  0  0
 10 11  2  0  0  0  0
 12 13  1  0  0  0  0
M  END
> <Index>
7763

> <PropertyFieldDistance>
nan

$$$$
5350964
BBcorina  12272117083D 1   1.00000     0.00000 
CORINA 4.3.0 0026  30.10.2019
 14 15  0  0  0  0  0  0  0  0999 V2000
  -36.3201    2.2807  -44.8920 C   0  0  0  0  0  0  0  0  0  0  0  0
  -36.0751    3.6565  -44.4390 N   0  0  0  0  0  0  0  0  0  0  0  0
  -37.0862    4.0741  -43.4342 C   0  0  0  0  0  0  0  0  0  0  0  0
  -36.3989    5.2596  -42.7113 C   0  0  0  0  0  0  0  0  0  0  0  0
  -34.9205    4.8129  -42.6431 C   0  0  0  0  0  0  0  0  0  0  0  0
  -33.9938    6.0035  -42.8970 C   0  0  0  0  0  0  0  0  0  0  0  0
  -34.0681    6.9326  -41.7616 N   0  0  0  0  0  0  0  0  0  0  0  0
  -34.7647    3.7663  -43.7619 C   0  0  0  0  0  0  0  0  0  0  0  0
  -33.7154    4.2177  -44.7448 C   0  0  0  0  0  0  0  0  0  0  0  0
  -32.4576    3.7752  -44.7842 C   0  0  0  0  0  0  0  0  0  0  0  0
  -31.6730    4.3353  -45.7775 C   0  0  0  0  0  0  0  0  0  0  0  0
  -32.2936    5.2329  -46.5447 C   0  0  0  0  0  0  0  0  0  0  0  0
  -33.9636    5.4032  -46.0200 S   0  0  0  0  0  0  0  0  0  0  0  0
  -33.0448    8.2809  -42.0051 X   0  0  0  0  0  0  0  0  0  0  0  0
  1  2  1  0  0  0  0
  2  3  1  0  0  0  0
  2  8  1  0  0  0  0
  3  4  1  0  0  0  0
  4  5  1  0  0  0  0
  5  6  1  0  0  0  0
  5  8  1  0  0  0  0
  6  7  1  0  0  0  0
  7 14  1  0  0  0  0
  8  9  1  0  0  0  0
  9 10  2  0  0  0  0
  9 13  1  0  0  0  0
 10 11  1  0  0  0  0
 11 12  2  0  0  0  0
 12 13  1  0  0  0  0
M  END
> <Index>
7765

> <PropertyFieldDistance>
nan

$$$$
5360636
BBcorina  12272117083D 1   1.00000     0.00000 
CORINA 4.3.0 0026  30.10.2019
 15 15  0  0  0  0  0  0  0  0999 V2000
  -35.3183    0.4591  -47.9315 C   0  0  0  0  0  0  0  0  0  0  0  0
  -36.0051    0.7526  -46.6712 N   0  0  0  0  0  0  0  0  0  0  0  0
  -35.8041    1.9335  -46.0534 C   0  0  0  0  0  0  0  0  0  0  0  0
  -35.0547    2.7531  -46.5408 O   0  0  0  0  0  0  0  0  0  0  0  0
  -36.5153    2.2379  -44.7601 C   0  0  0  0  0  0  0  0  0  0  0  0
  -36.1305    3.5765  -44.2930 N   0  0  0  0  0  0  0  0  0  0  0  0
  -36.9747    4.0050  -43.1704 C   0  0  0  0  0  0  0  0  0  0  0  0
  -36.6444    5.4542  -42.8062 C   0  0  0  0  0  0  0  0  0  0  0  0
  -35.1650    5.5548  -42.4241 C   0  0  0  0  0  0  0  0  0  0  0  0
  -34.8144    7.0119  -42.1160 C   0  0  0  0  0  0  0  0  0  0  0  0
  -33.4288    7.0909  -41.6347 N   0  0  0  0  0  0  0  0  0  0  0  0
  -33.0563    8.4784  -41.3281 C   0  0  0  0  0  0  0  0  0  0  0  0
  -34.3093    5.0572  -43.5922 C   0  0  0  0  0  0  0  0  0  0  0  0
  -34.7074    3.6195  -43.9337 C   0  0  0  0  0  0  0  0  0  0  0  0
  -33.1932    6.0788  -40.2767 X   0  0  0  0  0  0  0  0  0  0  0  0
  1  2  1  0  0  0  0
  2  3  1  0  0  0  0
  3  4  2  0  0  0  0
  3  5  1  0  0  0  0
  5  6  1  0  0  0  0
  6  7  1  0  0  0  0
  6 14  1  0  0  0  0
  7  8  1  0  0  0  0
  8  9  1  0  0  0  0
  9 10  1  0  0  0  0
  9 13  1  0  0  0  0
 10 11  1  0  0  0  0
 11 12  1  0  0  0  0
 11 15  1  0  0  0  0
 13 14  1  0  0  0  0
M  END
> <Index>
7783

> <PropertyFieldDistance>
nan

$$$$
17629672
BBcorina  12272117083D 1   1.00000     0.00000 
CORINA 4.3.0 0026  30.10.2019
 14 15  0  0  0  0  0  0  0  0999 V2000
  -37.0508    0.6967  -46.3995 N   0  0  0  0  0  0  0  0  0  0  0  0
  -36.9058    1.5112  -45.1856 C   0  0  0  0  0  0  0  0  0  0  0  0
  -35.8503    2.5935  -45.4206 C   0  0  0  0  0  0  0  0  0  0  0  0
  -35.7055    3.4079  -44.2066 N   0  0  0  0  0  0  0  0  0  0  0  0
  -36.9351    4.1597  -43.9276 C   0  0  0  0  0  0  0  0  0  0  0  0
  -36.8024    4.8871  -42.5869 C   0  0  0  0  0  0  0  0  0  0  0  0
  -35.6024    5.8331  -42.6472 C   0  0  0  0  0  0  0  0  0  0  0  0
  -35.4167    6.5296  -41.2987 C   0  0  0  0  0  0  0  0  0  0  0  0
  -34.2144    7.4735  -41.3782 C   0  0  0  0  0  0  0  0  0  0  0  0
  -32.9554    6.6755  -41.7214 C   0  0  0  0  0  0  0  0  0  0  0  0
  -33.1447    5.9687  -43.0659 C   0  0  0  0  0  0  0  0  0  0  0  0
  -34.3433    5.0237  -42.9746 C   0  0  0  0  0  0  0  0  0  0  0  0
  -34.5430    4.3007  -44.3072 C   0  0  0  0  0  0  0  0  0  0  0  0
  -38.2237   -0.5280  -46.1794 X   0  0  0  0  0  0  0  0  0  0  0  0
  1  2  1  0  0  0  0
  1 14  1  0  0  0  0
  2  3  1  0  0  0  0
  3  4  1  0  0  0  0
  4  5  1  0  0  0  0
  4 13  1  0  0  0  0
  5  6  1  0  0  0  0
  6  7  1  0  0  0  0
  7  8  1  0  0  0  0
  7 12  1  0  0  0  0
  8  9  1  0  0  0  0
  9 10  1  0  0  0  0
 10 11  1  0  0  0  0
 11 12  1  0  0  0  0
 12 13  1  0  0  0  0
M  END
> <Index>
7801

> <PropertyFieldDistance>
nan

$$$$
13161870
BBcorina  12272117083D 1   1.00000     0.00000 
CORINA 4.3.0 0026  30.10.2019
 12 12  0  0  0  0  0  0  0  0999 V2000
  -35.2906   -0.4997  -47.0331 C   0  0  0  0  0  0  0  0  0  0  0  0
  -36.2987    0.5705  -46.6097 C   0  0  0  0  0  0  0  0  0  0  0  0
  -35.6714    1.4674  -45.5404 C   0  0  0  0  0  0  0  0  0  0  0  0
  -36.6313    2.6112  -45.2070 C   0  0  0  0  0  0  0  0  0  0  0  0
  -36.0864    3.3987  -44.0931 N   0  0  0  0  0  0  0  0  0  0  0  0
  -37.0782    4.3647  -43.5959 C   0  0  0  0  0  0  0  0  0  0  0  0
  -36.4907    5.1202  -42.4010 C   0  0  0  0  0  0  0  0  0  0  0  0
  -35.2696    5.7516  -42.7952 O   0  0  0  0  0  0  0  0  0  0  0  0
  -34.2816    4.8401  -43.2836 C   0  0  0  0  0  0  0  0  0  0  0  0
  -34.8458    4.0816  -44.4879 C   0  0  0  0  0  0  0  0  0  0  0  0
  -35.4117    0.6773  -44.3295 N   0  0  0  0  0  0  0  0  0  0  0  0
  -36.8602    0.0141  -43.7081 X   0  0  0  0  0  0  0  0  0  0  0  0
  1  2  1  0  0  0  0
  2  3  1  0  0  0  0
  3  4  1  0  0  0  0
  3 11  1  0  0  0  0
  4  5  1  0  0  0  0
  5  6  1  0  0  0  0
  5 10  1  0  0  0  0
  6  7  1  0  0  0  0
  7  8  1  0  0  0  0
  8  9  1  0  0  0  0
  9 10  1  0  0  0  0
 11 12  1  0  0  0  0
M  END
> <Index>
7807

> <PropertyFieldDistance>
nan

$$$$
15358586
BBcorina  12272117083D 1   1.00000     0.00000 
CORINA 4.3.0 0026  30.10.2019
 14 15  0  0  0  0  0  0  0  0999 V2000
  -32.5044    6.5750  -42.6130 N   0  0  0  0  0  0  0  0  0  0  0  0
  -32.8547    5.1913  -42.9603 C   0  0  0  0  0  0  0  0  0  0  0  0
  -34.3080    5.1368  -43.4352 C   0  0  0  0  0  0  0  0  0  0  0  0
  -35.2385    5.5066  -42.2766 C   0  0  0  0  0  0  0  0  0  0  0  0
  -36.6923    5.3915  -42.7433 C   0  0  0  0  0  0  0  0  0  0  0  0
  -36.9514    3.9683  -43.2428 C   0  0  0  0  0  0  0  0  0  0  0  0
  -36.0372    3.6631  -44.3508 N   0  0  0  0  0  0  0  0  0  0  0  0
  -34.6363    3.7211  -43.9146 C   0  0  0  0  0  0  0  0  0  0  0  0
  -36.3495    2.3570  -44.9464 C   0  0  0  0  0  0  0  0  0  0  0  0
  -37.8119    2.3318  -45.4243 C   0  0  0  0  0  0  0  0  0  0  0  0
  -37.7740    2.0829  -46.9463 C   0  0  0  0  0  0  0  0  0  0  0  0
  -36.4113    1.3856  -47.1832 C   0  0  0  0  0  0  0  0  0  0  0  0
  -35.4738    2.1225  -46.1946 C   0  0  0  0  0  0  0  0  0  0  0  0
  -30.8844    6.6809  -42.0761 X   0  0  0  0  0  0  0  0  0  0  0  0
  1  2  1  0  0  0  0
  1 14  1  0  0  0  0
  2  3  1  0  0  0  0
  3  4  1  0  0  0  0
  3  8  1  0  0  0  0
  4  5  1  0  0  0  0
  5  6  1  0  0  0  0
  6  7  1  0  0  0  0
  7  8  1  0  0  0  0
  7  9  1  0  0  0  0
  9 10  1  0  0  0  0
  9 13  1  0  0  0  0
 10 11  1  0  0  0  0
 11 12  1  0  0  0  0
 12 13  1  0  0  0  0
M  END
> <Index>
7816

> <PropertyFieldDistance>
nan

$$$$
8751434
BBcorina  12272117083D 1   1.00000     0.00000 
CORINA 4.3.0 0026  30.10.2019
 10 10  0  0  0  0  0  0  0  0999 V2000
  -36.2473    1.3622  -45.0692 C   0  0  0  0  0  0  0  0  0  0  0  0
  -36.2594    2.8099  -45.5641 C   0  0  0  0  0  0  0  0  0  0  0  0
  -35.9511    3.7095  -44.4498 N   0  0  0  0  0  0  0  0  0  0  0  0
  -37.0539    4.2228  -43.6420 C   0  0  0  0  0  0  0  0  0  0  0  0
  -36.5250    4.7487  -42.3063 C   0  0  0  0  0  0  0  0  0  0  0  0
  -35.4001    5.6608  -42.5697 N   0  0  0  0  0  0  0  0  0  0  0  0
  -34.2464    4.9082  -43.0798 C   0  0  0  0  0  0  0  0  0  0  0  0
  -34.6724    4.0245  -44.2179 C   0  0  0  0  0  0  0  0  0  0  0  0
  -33.8213    3.5823  -44.9603 O   0  0  0  0  0  0  0  0  0  0  0  0
  -35.8559    6.8971  -43.6595 X   0  0  0  0  0  0  0  0  0  0  0  0
  1  2  1  0  0  0  0
  2  3  1  0  0  0  0
  3  4  1  0  0  0  0
  3  8  1  0  0  0  0
  4  5  1  0  0  0  0
  5  6  1  0  0  0  0
  6  7  1  0  0  0  0
  6 10  1  0  0  0  0
  7  8  1  0  0  0  0
  8  9  2  0  0  0  0
M  END
> <Index>
7817

> <PropertyFieldDistance>
nan

$$$$
12865122
BBcorina  12272117083D 1   1.00000     0.00000 
CORINA 4.3.0 0026  30.10.2019
 14 15  0  0  0  0  0  0  0  0999 V2000
  -37.6840    6.1181  -42.0624 C   0  0  0  0  0  0  0  0  0  0  0  0
  -36.5917    5.0986  -42.3916 C   0  0  0  0  0  0  0  0  0  0  0  0
  -37.0241    4.2576  -43.5951 C   0  0  0  0  0  0  0  0  0  0  0  0
  -35.9566    3.3058  -43.9331 N   0  0  0  0  0  0  0  0  0  0  0  0
  -34.7084    4.0113  -44.2549 C   0  0  0  0  0  0  0  0  0  0  0  0
  -34.2760    4.8523  -43.0515 C   0  0  0  0  0  0  0  0  0  0  0  0
  -35.3434    5.8041  -42.7135 N   0  0  0  0  0  0  0  0  0  0  0  0
  -36.3448    2.4708  -44.9833 C   0  0  0  0  0  0  0  0  0  0  0  0
  -35.4748    1.4965  -45.4561 C   0  0  0  0  0  0  0  0  0  0  0  0
  -35.8618    0.6722  -46.4944 C   0  0  0  0  0  0  0  0  0  0  0  0
  -37.1140    0.8159  -47.0633 C   0  0  0  0  0  0  0  0  0  0  0  0
  -37.9826    1.7848  -46.5951 C   0  0  0  0  0  0  0  0  0  0  0  0
  -37.6038    2.6089  -45.5537 C   0  0  0  0  0  0  0  0  0  0  0  0
  -34.8682    6.8263  -41.4276 X   0  0  0  0  0  0  0  0  0  0  0  0
  1  2  1  0  0  0  0
  2  3  1  0  0  0  0
  2  7  1  0  0  0  0
  3  4  1  0  0  0  0
  4  5  1  0  0  0  0
  4  8  1  0  0  0  0
  5  6  1  0  0  0  0
  6  7  1  0  0  0  0
  7 14  1  0  0  0  0
  8  9  2  0  0  0  0
  8 13  1  0  0  0  0
  9 10  1  0  0  0  0
 10 11  2  0  0  0  0
 11 12  1  0  0  0  0
 12 13  2  0  0  0  0
M  END
> <Index>
7818

> <PropertyFieldDistance>
nan

$$$$
12212548
BBcorina  12272117083D 1   1.00000     0.00000 
CORINA 4.3.0 0026  30.10.2019
 11 11  0  0  0  0  0  0  0  0999 V2000
  -36.5086    9.2668  -39.3653 C   0  0  0  0  0  0  0  0  0  0  0  0
  -35.6022    8.2524  -39.8027 O   0  0  0  0  0  0  0  0  0  0  0  0
  -35.9828    7.6214  -41.0271 C   0  0  0  0  0  0  0  0  0  0  0  0
  -34.9460    6.5589  -41.3971 C   0  0  0  0  0  0  0  0  0  0  0  0
  -35.3535    5.8833  -42.7079 C   0  0  0  0  0  0  0  0  0  0  0  0
  -36.6585    5.1099  -42.5008 C   0  0  0  0  0  0  0  0  0  0  0  0
  -37.0291    4.3869  -43.7977 C   0  0  0  0  0  0  0  0  0  0  0  0
  -35.9480    3.4664  -44.1723 N   0  0  0  0  0  0  0  0  0  0  0  0
  -34.6958    4.1916  -44.4226 C   0  0  0  0  0  0  0  0  0  0  0  0
  -34.2559    4.9088  -43.1442 C   0  0  0  0  0  0  0  0  0  0  0  0
  -36.3899    2.5211  -45.5270 X   0  0  0  0  0  0  0  0  0  0  0  0
  1  2  1  0  0  0  0
  2  3  1  0  0  0  0
  3  4  1  0  0  0  0
  4  5  1  0  0  0  0
  5  6  1  0  0  0  0
  5 10  1  0  0  0  0
  6  7  1  0  0  0  0
  7  8  1  0  0  0  0
  8  9  1  0  0  0  0
  8 11  1  0  0  0  0
  9 10  1  0  0  0  0
M  END
> <Index>
7825

> <PropertyFieldDistance>
nan

$$$$
14952394
BBcorina  12272117083D 1   1.00000     0.00000 
CORINA 4.3.0 0026  30.10.2019
 13 14  0  0  0  0  0  0  0  0999 V2000
  -36.2501    2.2760  -44.7961 C   0  0  0  0  0  0  0  0  0  0  0  0
  -36.0801    3.6761  -44.3852 N   0  0  0  0  0  0  0  0  0  0  0  0
  -36.9230    3.9898  -43.2298 C   0  0  0  0  0  0  0  0  0  0  0  0
  -36.6856    5.4516  -42.8311 C   0  0  0  0  0  0  0  0  0  0  0  0
  -35.2620    5.5651  -42.2811 C   0  0  0  0  0  0  0  0  0  0  0  0
  -34.3014    4.8678  -43.2117 C   0  0  0  0  0  0  0  0  0  0  0  0
  -32.9483    5.1360  -43.0729 C   0  0  0  0  0  0  0  0  0  0  0  0
  -32.0228    4.5175  -43.8877 C   0  0  0  0  0  0  0  0  0  0  0  0
  -32.4481    3.6171  -44.8568 C   0  0  0  0  0  0  0  0  0  0  0  0
  -31.5156    2.9808  -45.6792 N   0  0  0  0  0  0  0  0  0  0  0  0
  -33.7992    3.3483  -45.0009 C   0  0  0  0  0  0  0  0  0  0  0  0
  -34.7345    3.9765  -44.1793 C   0  0  0  0  0  0  0  0  0  0  0  0
  -29.8482    3.3147  -45.4990 X   0  0  0  0  0  0  0  0  0  0  0  0
  1  2  1  0  0  0  0
  2  3  1  0  0  0  0
  2 12  1  0  0  0  0
  3  4  1  0  0  0  0
  4  5  1  0  0  0  0
  5  6  1  0  0  0  0
  6  7  2  0  0  0  0
  6 12  1  0  0  0  0
  7  8  1  0  0  0  0
  8  9  2  0  0  0  0
  9 10  1  0  0  0  0
  9 11  1  0  0  0  0
 10 13  1  0  0  0  0
 11 12  2  0  0  0  0
M  END
> <Index>
7833

> <PropertyFieldDistance>
nan

$$$$
6361224
BBcorina  12272117083D 1   1.00000     0.00000 
CORINA 4.3.0 0026  30.10.2019
 11 11  0  0  0  0  0  0  0  0999 V2000
  -36.3496    2.3568  -44.9462 C   0  0  0  0  0  0  0  0  0  0  0  0
  -36.0375    3.6631  -44.3509 N   0  0  0  0  0  0  0  0  0  0  0  0
  -36.9514    3.9682  -43.2427 C   0  0  0  0  0  0  0  0  0  0  0  0
  -36.6926    5.3914  -42.7434 C   0  0  0  0  0  0  0  0  0  0  0  0
  -35.2387    5.5071  -42.2772 C   0  0  0  0  0  0  0  0  0  0  0  0
  -35.0163    4.6167  -41.1817 O   0  0  0  0  0  0  0  0  0  0  0  0
  -34.9568    6.9439  -41.8336 C   0  0  0  0  0  0  0  0  0  0  0  0
  -33.5323    7.0838  -41.5030 N   0  0  0  0  0  0  0  0  0  0  0  0
  -34.3073    5.1368  -43.4348 C   0  0  0  0  0  0  0  0  0  0  0  0
  -34.6363    3.7214  -43.9150 C   0  0  0  0  0  0  0  0  0  0  0  0
  -33.1734    8.6786  -41.0011 X   0  0  0  0  0  0  0  0  0  0  0  0
  1  2  1  0  0  0  0
  2  3  1  0  0  0  0
  2 10  1  0  0  0  0
  3  4  1  0  0  0  0
  4  5  1  0  0  0  0
  5  6  1  0  0  0  0
  5  7  1  0  0  0  0
  5  9  1  0  0  0  0
  7  8  1  0  0  0  0
  8 11  1  0  0  0  0
  9 10  1  0  0  0  0
M  END
> <Index>
7835

> <PropertyFieldDistance>
nan

$$$$
6407044
BBcorina  12272117083D 1   1.00000     0.00000 
CORINA 4.3.0 0026  30.10.2019
 13 13  0  0  0  0  0  0  0  0999 V2000
  -38.5670    3.9464  -47.8608 C   0  0  0  0  0  0  0  0  0  0  0  0
  -37.5616    2.8133  -48.0748 C   0  0  0  0  0  0  0  0  0  0  0  0
  -36.8651    2.9977  -49.4246 C   0  0  0  0  0  0  0  0  0  0  0  0
  -36.5877    2.8367  -47.0293 O   0  0  0  0  0  0  0  0  0  0  0  0
  -36.9388    2.0483  -45.8903 C   0  0  0  0  0  0  0  0  0  0  0  0
  -35.8303    2.1472  -44.8403 C   0  0  0  0  0  0  0  0  0  0  0  0
  -35.7401    3.5298  -44.3522 N   0  0  0  0  0  0  0  0  0  0  0  0
  -36.8412    3.8349  -43.4280 C   0  0  0  0  0  0  0  0  0  0  0  0
  -36.7568    5.3035  -43.0055 C   0  0  0  0  0  0  0  0  0  0  0  0
  -35.4555    5.5539  -42.3705 N   0  0  0  0  0  0  0  0  0  0  0  0
  -34.3544    5.2489  -43.2948 C   0  0  0  0  0  0  0  0  0  0  0  0
  -34.4387    3.7802  -43.7173 C   0  0  0  0  0  0  0  0  0  0  0  0
  -35.3504    7.1634  -41.8023 X   0  0  0  0  0  0  0  0  0  0  0  0
  1  2  1  0  0  0  0
  2  3  1  0  0  0  0
  2  4  1  0  0  0  0
  4  5  1  0  0  0  0
  5  6  1  0  0  0  0
  6  7  1  0  0  0  0
  7  8  1  0  0  0  0
  7 12  1  0  0  0  0
  8  9  1  0  0  0  0
  9 10  1  0  0  0  0
 10 11  1  0  0  0  0
 10 13  1  0  0  0  0
 11 12  1  0  0  0  0
M  END
> <Index>
7839

> <PropertyFieldDistance>
nan

$$$$
13970336
BBcorina  12272117083D 1   1.00000     0.00000 
CORINA 4.3.0 0026  30.10.2019
 11 11  0  0  0  0  0  0  0  0999 V2000
  -29.5061    4.5883  -44.2813 C   0  0  0  0  0  0  0  0  0  0  0  0
  -30.6278    5.4193  -43.9757 O   0  0  0  0  0  0  0  0  0  0  0  0
  -31.8353    4.6970  -43.7261 C   0  0  0  0  0  0  0  0  0  0  0  0
  -32.9630    5.6821  -43.4116 C   0  0  0  0  0  0  0  0  0  0  0  0
  -34.2559    4.9087  -43.1443 C   0  0  0  0  0  0  0  0  0  0  0  0
  -35.3534    5.8831  -42.7079 C   0  0  0  0  0  0  0  0  0  0  0  0
  -36.6587    5.1099  -42.5007 C   0  0  0  0  0  0  0  0  0  0  0  0
  -37.0290    4.3869  -43.7978 C   0  0  0  0  0  0  0  0  0  0  0  0
  -35.9479    3.4664  -44.1723 N   0  0  0  0  0  0  0  0  0  0  0  0
  -34.6958    4.1917  -44.4226 C   0  0  0  0  0  0  0  0  0  0  0  0
  -36.3899    2.5211  -45.5269 X   0  0  0  0  0  0  0  0  0  0  0  0
  1  2  1  0  0  0  0
  2  3  1  0  0  0  0
  3  4  1  0  0  0  0
  4  5  1  0  0  0  0
  5  6  1  0  0  0  0
  5 10  1  0  0  0  0
  6  7  1  0  0  0  0
  7  8  1  0  0  0  0
  8  9  1  0  0  0  0
  9 10  1  0  0  0  0
  9 11  1  0  0  0  0
M  END
> <Index>
7846

> <PropertyFieldDistance>
nan

$$$$
5454102
BBcorina  12272117083D 1   1.00000     0.00000 
CORINA 4.3.0 0026  30.10.2019
 15 16  0  0  0  0  0  0  0  0999 V2000
  -34.9611    6.9325  -41.8357 C   0  0  0  0  0  0  0  0  0  0  0  0
  -35.2420    5.4960  -42.2813 C   0  0  0  0  0  0  0  0  0  0  0  0
  -36.6958    5.3801  -42.7481 C   0  0  0  0  0  0  0  0  0  0  0  0
  -36.9540    3.9569  -43.2479 C   0  0  0  0  0  0  0  0  0  0  0  0
  -36.0395    3.6523  -44.3558 N   0  0  0  0  0  0  0  0  0  0  0  0
  -34.6386    3.7110  -43.9194 C   0  0  0  0  0  0  0  0  0  0  0  0
  -34.3113    5.1269  -43.4397 C   0  0  0  0  0  0  0  0  0  0  0  0
  -36.3356    2.4105  -44.9223 C   0  0  0  0  0  0  0  0  0  0  0  0
  -37.3837    1.6489  -44.4199 C   0  0  0  0  0  0  0  0  0  0  0  0
  -37.6773    0.4203  -44.9797 C   0  0  0  0  0  0  0  0  0  0  0  0
  -36.9313   -0.0546  -46.0408 C   0  0  0  0  0  0  0  0  0  0  0  0
  -35.8816    0.7020  -46.5482 C   0  0  0  0  0  0  0  0  0  0  0  0
  -35.1311    0.2234  -47.6245 N   0  0  0  0  0  0  0  0  0  0  0  0
  -35.5837    1.9360  -45.9880 C   0  0  0  0  0  0  0  0  0  0  0  0
  -35.4989   -1.2975  -48.3141 X   0  0  0  0  0  0  0  0  0  0  0  0
  1  2  1  0  0  0  0
  2  3  1  0  0  0  0
  2  7  1  0  0  0  0
  3  4  1  0  0  0  0
  4  5  1  0  0  0  0
  5  6  1  0  0  0  0
  5  8  1  0  0  0  0
  6  7  1  0  0  0  0
  8  9  2  0  0  0  0
  8 14  1  0  0  0  0
  9 10  1  0  0  0  0
 10 11  2  0  0  0  0
 11 12  1  0  0  0  0
 12 13  1  0  0  0  0
 12 14  2  0  0  0  0
 13 15  1  0  0  0  0
M  END
> <Index>
7857

> <PropertyFieldDistance>
nan

$$$$
5357346
BBcorina  12272117083D 1   1.00000     0.00000 
CORINA 4.3.0 0026  30.10.2019
 13 13  0  0  0  0  0  0  0  0999 V2000
  -32.6375    7.3932  -38.5882 C   0  0  0  0  0  0  0  0  0  0  0  0
  -33.7374    7.6205  -39.6272 C   0  0  0  0  0  0  0  0  0  0  0  0
  -33.9875    6.3837  -40.3456 O   0  0  0  0  0  0  0  0  0  0  0  0
  -34.9316    6.4133  -41.2993 C   0  0  0  0  0  0  0  0  0  0  0  0
  -35.5292    7.4385  -41.5264 O   0  0  0  0  0  0  0  0  0  0  0  0
  -35.2461    5.1675  -42.0870 C   0  0  0  0  0  0  0  0  0  0  0  0
  -35.1141    4.0225  -41.2424 O   0  0  0  0  0  0  0  0  0  0  0  0
  -36.6793    5.2476  -42.6202 C   0  0  0  0  0  0  0  0  0  0  0  0
  -36.9723    4.0086  -43.4695 C   0  0  0  0  0  0  0  0  0  0  0  0
  -36.0192    3.9414  -44.5845 N   0  0  0  0  0  0  0  0  0  0  0  0
  -34.6396    3.8164  -44.0970 C   0  0  0  0  0  0  0  0  0  0  0  0
  -34.2770    5.0496  -43.2665 C   0  0  0  0  0  0  0  0  0  0  0  0
  -36.4111    2.6621  -45.6494 X   0  0  0  0  0  0  0  0  0  0  0  0
  1  2  1  0  0  0  0
  2  3  1  0  0  0  0
  3  4  1  0  0  0  0
  4  5  2  0  0  0  0
  4  6  1  0  0  0  0
  6  7  1  0  0  0  0
  6  8  1  0  0  0  0
  6 12  1  0  0  0  0
  8  9  1  0  0  0  0
  9 10  1  0  0  0  0
 10 11  1  0  0  0  0
 10 13  1  0  0  0  0
 11 12  1  0  0  0  0
M  END
> <Index>
7877

> <PropertyFieldDistance>
nan

$$$$
5455402
BBcorina  12272117083D 1   1.00000     0.00000 
CORINA 4.3.0 0026  30.10.2019
 12 13  0  0  0  0  0  0  0  0999 V2000
  -36.0725    1.1094  -48.1594 N   0  0  0  0  0  0  0  0  0  0  0  0
  -36.6471   -0.0314  -47.4009 C   0  0  0  0  0  0  0  0  0  0  0  0
  -36.0985    0.1385  -45.9679 C   0  0  0  0  0  0  0  0  0  0  0  0
  -35.7643    1.6392  -45.8420 C   0  0  0  0  0  0  0  0  0  0  0  0
  -36.5974    2.2775  -44.7288 C   0  0  0  0  0  0  0  0  0  0  0  0
  -36.1803    3.6739  -44.5443 N   0  0  0  0  0  0  0  0  0  0  0  0
  -37.1113    4.3902  -43.6533 C   0  0  0  0  0  0  0  0  0  0  0  0
  -36.2803    4.9534  -42.4812 C   0  0  0  0  0  0  0  0  0  0  0  0
  -34.8448    5.0110  -43.0665 C   0  0  0  0  0  0  0  0  0  0  0  0
  -34.8223    3.7491  -43.9648 C   0  0  0  0  0  0  0  0  0  0  0  0
  -36.1390    2.2497  -47.2095 C   0  0  0  0  0  0  0  0  0  0  0  0
  -36.9869    1.4313  -49.5681 X   0  0  0  0  0  0  0  0  0  0  0  0
  1  2  1  0  0  0  0
  1 11  1  0  0  0  0
  1 12  1  0  0  0  0
  2  3  1  0  0  0  0
  3  4  1  0  0  0  0
  4  5  1  0  0  0  0
  4 11  1  0  0  0  0
  5  6  1  0  0  0  0
  6  7  1  0  0  0  0
  6 10  1  0  0  0  0
  7  8  1  0  0  0  0
  8  9  1  0  0  0  0
  9 10  1  0  0  0  0
M  END
> <Index>
7902

> <PropertyFieldDistance>
nan

$$$$
5456490
BBcorina  12272117083D 1   1.00000     0.00000 
CORINA 4.3.0 0026  30.10.2019
  9  9  0  0  0  0  0  0  0  0999 V2000
  -31.5149    4.6294  -40.3821 C   0  0  0  0  0  0  0  0  0  0  0  0
  -32.3164    4.8843  -41.9893 S   0  0  0  0  0  0  0  0  0  0  0  0
  -34.0823    4.8033  -41.5822 C   0  0  0  0  0  0  0  0  0  0  0  0
  -34.9087    5.0034  -42.8542 C   0  0  0  0  0  0  0  0  0  0  0  0
  -36.4203    5.0032  -42.5302 C   0  0  0  0  0  0  0  0  0  0  0  0
  -37.0792    4.2273  -43.6856 C   0  0  0  0  0  0  0  0  0  0  0  0
  -35.9998    3.8418  -44.6205 N   0  0  0  0  0  0  0  0  0  0  0  0
  -34.7584    3.7908  -43.8067 C   0  0  0  0  0  0  0  0  0  0  0  0
  -36.3244    2.3246  -45.3392 X   0  0  0  0  0  0  0  0  0  0  0  0
  1  2  1  0  0  0  0
  2  3  1  0  0  0  0
  3  4  1  0  0  0  0
  4  5  1  0  0  0  0
  4  8  1  0  0  0  0
  5  6  1  0  0  0  0
  6  7  1  0  0  0  0
  7  8  1  0  0  0  0
  7  9  1  0  0  0  0
M  END
> <Index>
7915

> <PropertyFieldDistance>
nan

$$$$
10437478
BBcorina  12272117083D 1   1.00000     0.00000 
CORINA 4.3.0 0026  30.10.2019
 10 10  0  0  0  0  0  0  0  0999 V2000
  -30.2017    5.6013  -44.0675 C   0  0  0  0  0  0  0  0  0  0  0  0
  -31.6261    4.5142  -43.7845 S   0  0  0  0  0  0  0  0  0  0  0  0
  -32.9630    5.6821  -43.4116 C   0  0  0  0  0  0  0  0  0  0  0  0
  -34.2558    4.9088  -43.1443 C   0  0  0  0  0  0  0  0  0  0  0  0
  -35.3535    5.8832  -42.7080 C   0  0  0  0  0  0  0  0  0  0  0  0
  -36.6587    5.1099  -42.5007 C   0  0  0  0  0  0  0  0  0  0  0  0
  -37.0290    4.3869  -43.7977 C   0  0  0  0  0  0  0  0  0  0  0  0
  -35.9479    3.4664  -44.1723 N   0  0  0  0  0  0  0  0  0  0  0  0
  -34.6959    4.1916  -44.4226 C   0  0  0  0  0  0  0  0  0  0  0  0
  -36.3899    2.5210  -45.5269 X   0  0  0  0  0  0  0  0  0  0  0  0
  1  2  1  0  0  0  0
  2  3  1  0  0  0  0
  3  4  1  0  0  0  0
  4  5  1  0  0  0  0
  4  9  1  0  0  0  0
  5  6  1  0  0  0  0
  6  7  1  0  0  0  0
  7  8  1  0  0  0  0
  8  9  1  0  0  0  0
  8 10  1  0  0  0  0
M  END
> <Index>
7918

> <PropertyFieldDistance>
nan

$$$$
13220498
BBcorina  12272117083D 1   1.00000     0.00000 
CORINA 4.3.0 0026  30.10.2019
 10 10  0  0  0  0  0  0  0  0999 V2000
  -35.5274    8.4984  -39.4066 C   0  0  0  0  0  0  0  0  0  0  0  0
  -36.1747    7.8196  -40.9593 S   0  0  0  0  0  0  0  0  0  0  0  0
  -34.9453    6.5600  -41.3980 C   0  0  0  0  0  0  0  0  0  0  0  0
  -35.3535    5.8833  -42.7079 C   0  0  0  0  0  0  0  0  0  0  0  0
  -36.6585    5.1099  -42.5008 C   0  0  0  0  0  0  0  0  0  0  0  0
  -37.0291    4.3869  -43.7977 C   0  0  0  0  0  0  0  0  0  0  0  0
  -35.9480    3.4664  -44.1723 N   0  0  0  0  0  0  0  0  0  0  0  0
  -34.6958    4.1916  -44.4226 C   0  0  0  0  0  0  0  0  0  0  0  0
  -34.2559    4.9088  -43.1442 C   0  0  0  0  0  0  0  0  0  0  0  0
  -36.3899    2.5211  -45.5270 X   0  0  0  0  0  0  0  0  0  0  0  0
  1  2  1  0  0  0  0
  2  3  1  0  0  0  0
  3  4  1  0  0  0  0
  4  5  1  0  0  0  0
  4  9  1  0  0  0  0
  5  6  1  0  0  0  0
  6  7  1  0  0  0  0
  7  8  1  0  0  0  0
  7 10  1  0  0  0  0
  8  9  1  0  0  0  0
M  END
> <Index>
7919

> <PropertyFieldDistance>
nan

$$$$
5730284
BBcorina  12272117083D 1   1.00000     0.00000 
CORINA 4.3.0 0026  30.10.2019
 15 16  0  0  0  0  0  0  0  0999 V2000
  -34.9610    6.9330  -41.8355 C   0  0  0  0  0  0  0  0  0  0  0  0
  -35.2419    5.4965  -42.2810 C   0  0  0  0  0  0  0  0  0  0  0  0
  -36.6956    5.3806  -42.7479 C   0  0  0  0  0  0  0  0  0  0  0  0
  -36.9538    3.9574  -43.2476 C   0  0  0  0  0  0  0  0  0  0  0  0
  -36.0394    3.6528  -44.3555 N   0  0  0  0  0  0  0  0  0  0  0  0
  -34.6385    3.7115  -43.9192 C   0  0  0  0  0  0  0  0  0  0  0  0
  -34.3111    5.1273  -43.4394 C   0  0  0  0  0  0  0  0  0  0  0  0
  -36.3363    2.4081  -44.9234 C   0  0  0  0  0  0  0  0  0  0  0  0
  -35.5834    1.9340  -45.9896 C   0  0  0  0  0  0  0  0  0  0  0  0
  -35.8760    0.7060  -46.5494 C   0  0  0  0  0  0  0  0  0  0  0  0
  -36.9229   -0.0547  -46.0461 C   0  0  0  0  0  0  0  0  0  0  0  0
  -37.2199   -1.2995  -46.6139 N   0  0  0  0  0  0  0  0  0  0  0  0
  -37.6791    0.4216  -44.9833 C   0  0  0  0  0  0  0  0  0  0  0  0
  -37.3838    1.6477  -44.4207 C   0  0  0  0  0  0  0  0  0  0  0  0
  -36.2977   -1.8798  -47.9319 X   0  0  0  0  0  0  0  0  0  0  0  0
  1  2  1  0  0  0  0
  2  3  1  0  0  0  0
  2  7  1  0  0  0  0
  3  4  1  0  0  0  0
  4  5  1  0  0  0  0
  5  6  1  0  0  0  0
  5  8  1  0  0  0  0
  6  7  1  0  0  0  0
  8  9  2  0  0  0  0
  8 14  1  0  0  0  0
  9 10  1  0  0  0  0
 10 11  2  0  0  0  0
 11 12  1  0  0  0  0
 11 13  1  0  0  0  0
 12 15  1  0  0  0  0
 13 14  2  0  0  0  0
M  END
> <Index>
7920

> <PropertyFieldDistance>
nan

$$$$
5503160
BBcorina  12272117083D 1   1.00000     0.00000 
CORINA 4.3.0 0026  30.10.2019
 12 12  0  0  0  0  0  0  0  0999 V2000
  -34.6468    6.6044  -41.7396 N   0  0  0  0  0  0  0  0  0  0  0  0
  -35.2319    5.8728  -42.8712 C   0  0  0  0  0  0  0  0  0  0  0  0
  -36.5217    5.1812  -42.4214 C   0  0  0  0  0  0  0  0  0  0  0  0
  -37.0946    4.3727  -43.5877 C   0  0  0  0  0  0  0  0  0  0  0  0
  -36.1096    3.3749  -44.0239 N   0  0  0  0  0  0  0  0  0  0  0  0
  -36.6762    2.4891  -45.0496 C   0  0  0  0  0  0  0  0  0  0  0  0
  -35.5626    1.6328  -45.6558 C   0  0  0  0  0  0  0  0  0  0  0  0
  -36.1305    0.7451  -46.6836 C   0  0  0  0  0  0  0  0  0  0  0  0
  -36.5833    0.0372  -47.5033 C   0  0  0  0  0  0  0  0  0  0  0  0
  -34.8799    4.0176  -44.5047 C   0  0  0  0  0  0  0  0  0  0  0  0
  -34.2409    4.8155  -43.3659 C   0  0  0  0  0  0  0  0  0  0  0  0
  -34.1783    5.5320  -40.4929 X   0  0  0  0  0  0  0  0  0  0  0  0
  1  2  1  0  0  0  0
  1 12  1  0  0  0  0
  2  3  1  0  0  0  0
  2 11  1  0  0  0  0
  3  4  1  0  0  0  0
  4  5  1  0  0  0  0
  5  6  1  0  0  0  0
  5 10  1  0  0  0  0
  6  7  1  0  0  0  0
  7  8  1  0  0  0  0
  8  9  3  0  0  0  0
 10 11  1  0  0  0  0
M  END
> <Index>
7935

> <PropertyFieldDistance>
nan

$$$$
5503164
BBcorina  12272117083D 1   1.00000     0.00000 
CORINA 4.3.0 0026  30.10.2019
 14 15  0  0  0  0  0  0  0  0999 V2000
  -35.2497    5.7278  -42.7076 N   0  0  0  0  0  0  0  0  0  0  0  0
  -36.5084    5.0810  -42.3116 C   0  0  0  0  0  0  0  0  0  0  0  0
  -37.0937    4.3323  -43.5114 C   0  0  0  0  0  0  0  0  0  0  0  0
  -36.1213    3.3384  -43.9870 N   0  0  0  0  0  0  0  0  0  0  0  0
  -36.6764    2.5458  -45.0923 C   0  0  0  0  0  0  0  0  0  0  0  0
  -35.5665    1.7023  -45.7226 C   0  0  0  0  0  0  0  0  0  0  0  0
  -36.1201    0.9118  -46.8249 N   0  0  0  0  0  0  0  0  0  0  0  0
  -35.6871    0.8898  -48.0973 C   0  0  0  0  0  0  0  0  0  0  0  0
  -36.4429    0.0595  -48.7690 N   0  0  0  0  0  0  0  0  0  0  0  0
  -37.3650   -0.4652  -47.9631 C   0  0  0  0  0  0  0  0  0  0  0  0
  -37.2081    0.0259  -46.7620 N   0  0  0  0  0  0  0  0  0  0  0  0
  -34.8625    3.9851  -44.3830 C   0  0  0  0  0  0  0  0  0  0  0  0
  -34.2773    4.7338  -43.1832 C   0  0  0  0  0  0  0  0  0  0  0  0
  -34.6035    6.6503  -41.4210 X   0  0  0  0  0  0  0  0  0  0  0  0
  1  2  1  0  0  0  0
  1 13  1  0  0  0  0
  1 14  1  0  0  0  0
  2  3  1  0  0  0  0
  3  4  1  0  0  0  0
  4  5  1  0  0  0  0
  4 12  1  0  0  0  0
  5  6  1  0  0  0  0
  6  7  1  0  0  0  0
  7  8  1  0  0  0  0
  7 11  1  0  0  0  0
  8  9  2  0  0  0  0
  9 10  1  0  0  0  0
 10 11  2  0  0  0  0
 12 13  1  0  0  0  0
M  END
> <Index>
7943

> <PropertyFieldDistance>
nan

$$$$
5530720
BBcorina  12272117083D 1   1.00000     0.00000 
CORINA 4.3.0 0026  30.10.2019
 12 12  0  0  0  0  0  0  0  0999 V2000
  -37.3366    4.1650  -40.3654 C   0  0  0  0  0  0  0  0  0  0  0  0
  -37.5169    5.3540  -41.3113 C   0  0  0  0  0  0  0  0  0  0  0  0
  -38.9130    5.4118  -41.7646 N   0  0  0  0  0  0  0  0  0  0  0  0
  -36.5945    5.1881  -42.5205 C   0  0  0  0  0  0  0  0  0  0  0  0
  -36.9635    3.9070  -43.2724 C   0  0  0  0  0  0  0  0  0  0  0  0
  -36.0510    3.7299  -44.4105 N   0  0  0  0  0  0  0  0  0  0  0  0
  -36.4206    2.5494  -45.2029 C   0  0  0  0  0  0  0  0  0  0  0  0
  -34.6565    3.6429  -43.9551 C   0  0  0  0  0  0  0  0  0  0  0  0
  -34.2873    4.9239  -43.2033 C   0  0  0  0  0  0  0  0  0  0  0  0
  -35.1999    5.1011  -42.0652 N   0  0  0  0  0  0  0  0  0  0  0  0
  -34.8303    6.2816  -41.2728 C   0  0  0  0  0  0  0  0  0  0  0  0
  -39.4517    3.8752  -42.2872 X   0  0  0  0  0  0  0  0  0  0  0  0
  1  2  1  0  0  0  0
  2  3  1  0  0  0  0
  2  4  1  0  0  0  0
  3 12  1  0  0  0  0
  4  5  1  0  0  0  0
  4 10  1  0  0  0  0
  5  6  1  0  0  0  0
  6  7  1  0  0  0  0
  6  8  1  0  0  0  0
  8  9  1  0  0  0  0
  9 10  1  0  0  0  0
 10 11  1  0  0  0  0
M  END
> <Index>
7958

> <PropertyFieldDistance>
nan

$$$$
6361232
BBcorina  12272117083D 1   1.00000     0.00000 
CORINA 4.3.0 0026  30.10.2019
 13 13  0  0  0  0  0  0  0  0999 V2000
  -36.5308    0.6949  -43.9625 C   0  0  0  0  0  0  0  0  0  0  0  0
  -36.8991    1.5016  -45.2092 C   0  0  0  0  0  0  0  0  0  0  0  0
  -38.1866    2.0950  -45.0296 O   0  0  0  0  0  0  0  0  0  0  0  0
  -36.9302    0.5745  -46.4259 C   0  0  0  0  0  0  0  0  0  0  0  0
  -37.9299   -0.4804  -46.2123 N   0  0  0  0  0  0  0  0  0  0  0  0
  -35.8579    2.6004  -45.4318 C   0  0  0  0  0  0  0  0  0  0  0  0
  -35.7086    3.3899  -44.2020 N   0  0  0  0  0  0  0  0  0  0  0  0
  -36.9311    4.1545  -43.9152 C   0  0  0  0  0  0  0  0  0  0  0  0
  -36.7542    4.9140  -42.5977 C   0  0  0  0  0  0  0  0  0  0  0  0
  -35.5996    5.7530  -42.6880 O   0  0  0  0  0  0  0  0  0  0  0  0
  -34.3909    5.0408  -42.9659 C   0  0  0  0  0  0  0  0  0  0  0  0
  -34.5437    4.2826  -44.2871 C   0  0  0  0  0  0  0  0  0  0  0  0
  -37.9973   -1.5413  -47.5517 X   0  0  0  0  0  0  0  0  0  0  0  0
  1  2  1  0  0  0  0
  2  3  1  0  0  0  0
  2  4  1  0  0  0  0
  2  6  1  0  0  0  0
  4  5  1  0  0  0  0
  5 13  1  0  0  0  0
  6  7  1  0  0  0  0
  7  8  1  0  0  0  0
  7 12  1  0  0  0  0
  8  9  1  0  0  0  0
  9 10  1  0  0  0  0
 10 11  1  0  0  0  0
 11 12  1  0  0  0  0
M  END
> <Index>
7989

> <PropertyFieldDistance>
nan

$$$$
5534734
BBcorina  12272117083D 1   1.00000     0.00000 
CORINA 4.3.0 0026  30.10.2019
 12 12  0  0  0  0  0  0  0  0999 V2000
  -34.8102   -0.1932  -47.6966 C   0  0  0  0  0  0  0  0  0  0  0  0
  -36.2520    0.7235  -47.0874 S   0  0  0  0  0  0  0  0  0  0  0  0
  -36.7235    1.5956  -48.1055 O   0  0  0  0  0  0  0  0  0  0  0  0
  -35.5665    1.7023  -45.7226 C   0  0  0  0  0  0  0  0  0  0  0  0
  -36.6764    2.5458  -45.0923 C   0  0  0  0  0  0  0  0  0  0  0  0
  -36.1213    3.3385  -43.9870 N   0  0  0  0  0  0  0  0  0  0  0  0
  -37.0937    4.3323  -43.5113 C   0  0  0  0  0  0  0  0  0  0  0  0
  -36.5085    5.0811  -42.3117 C   0  0  0  0  0  0  0  0  0  0  0  0
  -35.2497    5.7277  -42.7076 N   0  0  0  0  0  0  0  0  0  0  0  0
  -34.2773    4.7339  -43.1833 C   0  0  0  0  0  0  0  0  0  0  0  0
  -34.8625    3.9851  -44.3830 C   0  0  0  0  0  0  0  0  0  0  0  0
  -34.6035    6.6503  -41.4210 X   0  0  0  0  0  0  0  0  0  0  0  0
  1  2  1  0  0  0  0
  2  3  2  0  0  0  0
  2  4  1  0  0  0  0
  4  5  1  0  0  0  0
  5  6  1  0  0  0  0
  6  7  1  0  0  0  0
  6 11  1  0  0  0  0
  7  8  1  0  0  0  0
  8  9  1  0  0  0  0
  9 10  1  0  0  0  0
  9 12  1  0  0  0  0
 10 11  1  0  0  0  0
M  END
> <Index>
7999

> <PropertyFieldDistance>
nan

$$$$
10966356
BBcorina  12272117083D 1   1.00000     0.00000 
CORINA 4.3.0 0026  30.10.2019
 13 14  0  0  0  0  0  0  0  0999 V2000
  -36.3024    2.2677  -45.0505 C   0  0  0  0  0  0  0  0  0  0  0  0
  -36.0555    3.4070  -44.1632 N   0  0  0  0  0  0  0  0  0  0  0  0
  -37.0869    4.2211  -43.5101 C   0  0  0  0  0  0  0  0  0  0  0  0
  -36.3536    5.2616  -42.7013 C   0  0  0  0  0  0  0  0  0  0  0  0
  -34.9919    5.0356  -42.9074 C   0  0  0  0  0  0  0  0  0  0  0  0
  -34.0567    5.8603  -42.2784 C   0  0  0  0  0  0  0  0  0  0  0  0
  -34.4825    6.8913  -41.4661 C   0  0  0  0  0  0  0  0  0  0  0  0
  -35.8324    7.1155  -41.2693 C   0  0  0  0  0  0  0  0  0  0  0  0
  -36.7730    6.3000  -41.8904 C   0  0  0  0  0  0  0  0  0  0  0  0
  -38.1371    6.5262  -41.6907 N   0  0  0  0  0  0  0  0  0  0  0  0
  -34.8467    3.8798  -43.8134 C   0  0  0  0  0  0  0  0  0  0  0  0
  -33.7859    3.4206  -44.1892 O   0  0  0  0  0  0  0  0  0  0  0  0
  -39.2911    5.5267  -42.4610 X   0  0  0  0  0  0  0  0  0  0  0  0
  1  2  1  0  0  0  0
  2  3  1  0  0  0  0
  2 11  1  0  0  0  0
  3  4  1  0  0  0  0
  4  5  2  0  0  0  0
  4  9  1  0  0  0  0
  5  6  1  0  0  0  0
  5 11  1  0  0  0  0
  6  7  2  0  0  0  0
  7  8  1  0  0  0  0
  8  9  2  0  0  0  0
  9 10  1  0  0  0  0
 10 13  1  0  0  0  0
 11 12  2  0  0  0  0
M  END
> <Index>
8019

> <PropertyFieldDistance>
nan

$$$$
9292842
BBcorina  12272117083D 1   1.00000     0.00000 
CORINA 4.3.0 0026  30.10.2019
 11 11  0  0  0  0  0  0  0  0999 V2000
  -37.7036    7.0422  -42.5397 C   0  0  0  0  0  0  0  0  0  0  0  0
  -37.5898    5.7699  -41.6975 C   0  0  0  0  0  0  0  0  0  0  0  0
  -38.9533    5.0791  -41.6301 C   0  0  0  0  0  0  0  0  0  0  0  0
  -36.5702    4.8249  -42.3364 C   0  0  0  0  0  0  0  0  0  0  0  0
  -37.0096    4.4890  -43.7634 C   0  0  0  0  0  0  0  0  0  0  0  0
  -36.0087    3.6126  -44.3879 N   0  0  0  0  0  0  0  0  0  0  0  0
  -34.6919    4.2640  -44.4241 C   0  0  0  0  0  0  0  0  0  0  0  0
  -34.2525    4.6000  -42.9970 C   0  0  0  0  0  0  0  0  0  0  0  0
  -35.2534    5.4762  -42.3726 N   0  0  0  0  0  0  0  0  0  0  0  0
  -34.8300    5.8830  -41.0259 C   0  0  0  0  0  0  0  0  0  0  0  0
  -36.5014    3.1392  -45.9554 X   0  0  0  0  0  0  0  0  0  0  0  0
  1  2  1  0  0  0  0
  2  3  1  0  0  0  0
  2  4  1  0  0  0  0
  4  5  1  0  0  0  0
  4  9  1  0  0  0  0
  5  6  1  0  0  0  0
  6  7  1  0  0  0  0
  6 11  1  0  0  0  0
  7  8  1  0  0  0  0
  8  9  1  0  0  0  0
  9 10  1  0  0  0  0
M  END
> <Index>
8024

> <PropertyFieldDistance>
nan

$$$$
10126584
BBcorina  12272117083D 1   1.00000     0.00000 
CORINA 4.3.0 0026  30.10.2019
 12 13  0  0  0  0  0  0  0  0999 V2000
  -35.1910    8.7043  -43.6093 C   0  0  0  0  0  0  0  0  0  0  0  0
  -36.3319    7.7968  -43.4280 N   0  0  0  0  0  0  0  0  0  0  0  0
  -35.8817    6.4044  -43.2998 C   0  0  0  0  0  0  0  0  0  0  0  0
  -37.0831    5.5073  -42.9886 C   0  0  0  0  0  0  0  0  0  0  0  0
  -36.6257    4.0400  -43.0040 C   0  0  0  0  0  0  0  0  0  0  0  0
  -35.3316    3.9392  -42.1640 C   0  0  0  0  0  0  0  0  0  0  0  0
  -34.1893    4.2166  -43.1633 C   0  0  0  0  0  0  0  0  0  0  0  0
  -34.8969    4.4596  -44.5163 C   0  0  0  0  0  0  0  0  0  0  0  0
  -35.2287    5.9575  -44.6109 C   0  0  0  0  0  0  0  0  0  0  0  0
  -36.1865    3.7297  -44.3904 N   0  0  0  0  0  0  0  0  0  0  0  0
  -35.9931    2.2846  -44.5705 C   0  0  0  0  0  0  0  0  0  0  0  0
  -37.4558    7.9625  -44.7060 X   0  0  0  0  0  0  0  0  0  0  0  0
  1  2  1  0  0  0  0
  2  3  1  0  0  0  0
  2 12  1  0  0  0  0
  3  4  1  0  0  0  0
  3  9  1  0  0  0  0
  4  5  1  0  0  0  0
  5  6  1  0  0  0  0
  5 10  1  0  0  0  0
  6  7  1  0  0  0  0
  7  8  1  0  0  0  0
  8  9  1  0  0  0  0
  8 10  1  0  0  0  0
 10 11  1  0  0  0  0
M  END
> <Index>
8025

> <PropertyFieldDistance>
nan

$$$$
7968706
BBcorina  12272117083D 1   1.00000     0.00000 
CORINA 4.3.0 0026  30.10.2019
 12 12  0  0  0  0  0  0  0  0999 V2000
  -37.0167    1.6515  -45.1341 C   0  0  0  0  0  0  0  0  0  0  0  0
  -35.7328    2.4391  -45.0874 C   0  0  0  0  0  0  0  0  0  0  0  0
  -34.7253    1.9868  -45.5889 O   0  0  0  0  0  0  0  0  0  0  0  0
  -35.7053    3.6485  -44.4933 N   0  0  0  0  0  0  0  0  0  0  0  0
  -36.9388    4.2688  -43.9866 C   0  0  0  0  0  0  0  0  0  0  0  0
  -36.7060    4.6998  -42.5346 C   0  0  0  0  0  0  0  0  0  0  0  0
  -35.5096    5.5493  -42.4650 N   0  0  0  0  0  0  0  0  0  0  0  0
  -34.3066    4.8094  -42.8688 C   0  0  0  0  0  0  0  0  0  0  0  0
  -34.4400    4.3802  -44.3290 C   0  0  0  0  0  0  0  0  0  0  0  0
  -33.2681    3.4714  -44.7049 C   0  0  0  0  0  0  0  0  0  0  0  0
  -34.4428    5.6196  -45.2262 C   0  0  0  0  0  0  0  0  0  0  0  0
  -35.3226    6.2175  -40.9022 X   0  0  0  0  0  0  0  0  0  0  0  0
  1  2  1  0  0  0  0
  2  3  2  0  0  0  0
  2  4  1  0  0  0  0
  4  5  1  0  0  0  0
  4  9  1  0  0  0  0
  5  6  1  0  0  0  0
  6  7  1  0  0  0  0
  7  8  1  0  0  0  0
  7 12  1  0  0  0  0
  8  9  1  0  0  0  0
  9 10  1  0  0  0  0
  9 11  1  0  0  0  0
M  END
> <Index>
8026

> <PropertyFieldDistance>
nan

$$$$
9984528
BBcorina  12272117083D 1   1.00000     0.00000 
CORINA 4.3.0 0026  30.10.2019
 15 16  0  0  0  0  0  0  0  0999 V2000
  -36.3611    2.4252  -45.0196 C   0  0  0  0  0  0  0  0  0  0  0  0
  -35.9529    3.3098  -43.9201 N   0  0  0  0  0  0  0  0  0  0  0  0
  -37.0213    4.2620  -43.5860 C   0  0  0  0  0  0  0  0  0  0  0  0
  -36.5888    5.1099  -42.3875 C   0  0  0  0  0  0  0  0  0  0  0  0
  -35.3417    5.8153  -42.7143 N   0  0  0  0  0  0  0  0  0  0  0  0
  -34.2734    4.8632  -43.0484 C   0  0  0  0  0  0  0  0  0  0  0  0
  -34.7059    4.0152  -44.2469 C   0  0  0  0  0  0  0  0  0  0  0  0
  -33.6123    2.9957  -44.5721 C   0  0  0  0  0  0  0  0  0  0  0  0
  -32.3715    3.7186  -45.0290 C   0  0  0  0  0  0  0  0  0  0  0  0
  -31.3609    3.9949  -44.1271 C   0  0  0  0  0  0  0  0  0  0  0  0
  -30.2227    4.6580  -44.5461 C   0  0  0  0  0  0  0  0  0  0  0  0
  -30.0948    5.0444  -45.8672 C   0  0  0  0  0  0  0  0  0  0  0  0
  -31.1047    4.7669  -46.7694 C   0  0  0  0  0  0  0  0  0  0  0  0
  -32.2412    4.1003  -46.3512 C   0  0  0  0  0  0  0  0  0  0  0  0
  -34.8667    6.8450  -41.4344 X   0  0  0  0  0  0  0  0  0  0  0  0
  1  2  1  0  0  0  0
  2  3  1  0  0  0  0
  2  7  1  0  0  0  0
  3  4  1  0  0  0  0
  4  5  1  0  0  0  0
  5  6  1  0  0  0  0
  5 15  1  0  0  0  0
  6  7  1  0  0  0  0
  7  8  1  0  0  0  0
  8  9  1  0  0  0  0
  9 10  2  0  0  0  0
  9 14  1  0  0  0  0
 10 11  1  0  0  0  0
 11 12  2  0  0  0  0
 12 13  1  0  0  0  0
 13 14  2  0  0  0  0
M  END
> <Index>
8029

> <PropertyFieldDistance>
nan

$$$$
8166082
BBcorina  12272117083D 1   1.00000     0.00000 
CORINA 4.3.0 0026  30.10.2019
 15 16  0  0  0  0  0  0  0  0999 V2000
  -37.5897    5.7697  -41.6970 C   0  0  0  0  0  0  0  0  0  0  0  0
  -36.5702    4.8249  -42.3363 C   0  0  0  0  0  0  0  0  0  0  0  0
  -37.0096    4.4890  -43.7635 C   0  0  0  0  0  0  0  0  0  0  0  0
  -36.0087    3.6126  -44.3880 N   0  0  0  0  0  0  0  0  0  0  0  0
  -34.6918    4.2641  -44.4241 C   0  0  0  0  0  0  0  0  0  0  0  0
  -34.2524    4.6000  -42.9970 C   0  0  0  0  0  0  0  0  0  0  0  0
  -35.2534    5.4763  -42.3725 N   0  0  0  0  0  0  0  0  0  0  0  0
  -34.8300    5.8830  -41.0259 C   0  0  0  0  0  0  0  0  0  0  0  0
  -34.5541    4.6379  -40.1784 C   0  0  0  0  0  0  0  0  0  0  0  0
  -34.0553    5.0675  -38.7969 C   0  0  0  0  0  0  0  0  0  0  0  0
  -32.8300    5.8635  -38.9431 N   0  0  0  0  0  0  0  0  0  0  0  0
  -32.2461    6.1766  -37.6320 C   0  0  0  0  0  0  0  0  0  0  0  0
  -33.0812    7.0882  -39.7134 C   0  0  0  0  0  0  0  0  0  0  0  0
  -33.5517    6.7203  -41.1225 C   0  0  0  0  0  0  0  0  0  0  0  0
  -36.5014    3.1392  -45.9555 X   0  0  0  0  0  0  0  0  0  0  0  0
  1  2  1  0  0  0  0
  2  3  1  0  0  0  0
  2  7  1  0  0  0  0
  3  4  1  0  0  0  0
  4  5  1  0  0  0  0
  4 15  1  0  0  0  0
  5  6  1  0  0  0  0
  6  7  1  0  0  0  0
  7  8  1  0  0  0  0
  8  9  1  0  0  0  0
  8 14  1  0  0  0  0
  9 10  1  0  0  0  0
 10 11  1  0  0  0  0
 11 12  1  0  0  0  0
 11 13  1  0  0  0  0
 13 14  1  0  0  0  0
M  END
> <Index>
8030

> <PropertyFieldDistance>
nan

$$$$
13905880
BBcorina  12272117083D 1   1.00000     0.00000 
CORINA 4.3.0 0026  30.10.2019
  9 10  0  0  0  0  0  0  0  0999 V2000
  -35.2434    3.5062  -41.3828 O   0  0  0  0  0  0  0  0  0  0  0  0
  -35.2272    4.8573  -41.8480 C   0  0  0  0  0  0  0  0  0  0  0  0
  -34.4606    5.0532  -43.1707 C   0  0  0  0  0  0  0  0  0  0  0  0
  -35.5139    6.1379  -43.4817 C   0  0  0  0  0  0  0  0  0  0  0  0
  -36.4778    5.2544  -42.6567 C   0  0  0  0  0  0  0  0  0  0  0  0
  -36.9804    4.0698  -43.5060 C   0  0  0  0  0  0  0  0  0  0  0  0
  -36.0257    3.8483  -44.6063 N   0  0  0  0  0  0  0  0  0  0  0  0
  -34.6428    3.8380  -44.0980 C   0  0  0  0  0  0  0  0  0  0  0  0
  -36.3814    2.4008  -45.4442 X   0  0  0  0  0  0  0  0  0  0  0  0
  1  2  1  0  0  0  0
  2  3  1  0  0  0  0
  2  5  1  0  0  0  0
  3  4  1  0  0  0  0
  3  8  1  0  0  0  0
  4  5  1  0  0  0  0
  5  6  1  0  0  0  0
  6  7  1  0  0  0  0
  7  8  1  0  0  0  0
  7  9  1  0  0  0  0
M  END
> <Index>
8042

> <PropertyFieldDistance>
nan

$$$$
16896194
BBcorina  12272117083D 1   1.00000     0.00000 
CORINA 4.3.0 0026  30.10.2019
  9  9  0  0  0  0  0  0  0  0999 V2000
  -38.6617    2.9362  -44.7748 F   0  0  0  0  0  0  0  0  0  0  0  0
  -38.3222    3.5965  -43.5890 C   0  0  0  0  0  0  0  0  0  0  0  0
  -37.0290    4.3869  -43.7977 C   0  0  0  0  0  0  0  0  0  0  0  0
  -36.6587    5.1099  -42.5007 C   0  0  0  0  0  0  0  0  0  0  0  0
  -35.3534    5.8832  -42.7080 C   0  0  0  0  0  0  0  0  0  0  0  0
  -34.2558    4.9088  -43.1443 C   0  0  0  0  0  0  0  0  0  0  0  0
  -34.6959    4.1916  -44.4227 C   0  0  0  0  0  0  0  0  0  0  0  0
  -35.9479    3.4664  -44.1723 N   0  0  0  0  0  0  0  0  0  0  0  0
  -36.3898    2.5210  -45.5270 X   0  0  0  0  0  0  0  0  0  0  0  0
  1  2  1  0  0  0  0
  2  3  1  0  0  0  0
  3  4  1  0  0  0  0
  3  8  1  0  0  0  0
  4  5  1  0  0  0  0
  5  6  1  0  0  0  0
  6  7  1  0  0  0  0
  7  8  1  0  0  0  0
  8  9  1  0  0  0  0
M  END
> <Index>
8045

> <PropertyFieldDistance>
nan

$$$$
10717766
BBcorina  12272117083D 1   1.00000     0.00000 
CORINA 4.3.0 0026  30.10.2019
  9  9  0  0  0  0  0  0  0  0999 V2000
  -33.8133    7.3509  -41.6132 F   0  0  0  0  0  0  0  0  0  0  0  0
  -34.9460    6.5589  -41.3971 C   0  0  0  0  0  0  0  0  0  0  0  0
  -35.3535    5.8833  -42.7079 C   0  0  0  0  0  0  0  0  0  0  0  0
  -36.6585    5.1099  -42.5008 C   0  0  0  0  0  0  0  0  0  0  0  0
  -37.0291    4.3869  -43.7977 C   0  0  0  0  0  0  0  0  0  0  0  0
  -35.9480    3.4664  -44.1723 N   0  0  0  0  0  0  0  0  0  0  0  0
  -34.6958    4.1916  -44.4226 C   0  0  0  0  0  0  0  0  0  0  0  0
  -34.2559    4.9088  -43.1442 C   0  0  0  0  0  0  0  0  0  0  0  0
  -36.3899    2.5211  -45.5270 X   0  0  0  0  0  0  0  0  0  0  0  0
  1  2  1  0  0  0  0
  2  3  1  0  0  0  0
  3  4  1  0  0  0  0
  3  8  1  0  0  0  0
  4  5  1  0  0  0  0
  5  6  1  0  0  0  0
  6  7  1  0  0  0  0
  6  9  1  0  0  0  0
  7  8  1  0  0  0  0
M  END
> <Index>
8046

> <PropertyFieldDistance>
nan

$$$$
11949582
BBcorina  12272117083D 1   1.00000     0.00000 
CORINA 4.3.0 0026  30.10.2019
 10 10  0  0  0  0  0  0  0  0999 V2000
  -35.9479    3.4664  -44.1723 N   0  0  0  0  0  0  0  0  0  0  0  0
  -37.0290    4.3869  -43.7977 C   0  0  0  0  0  0  0  0  0  0  0  0
  -36.6587    5.1099  -42.5007 C   0  0  0  0  0  0  0  0  0  0  0  0
  -35.3535    5.8832  -42.7080 C   0  0  0  0  0  0  0  0  0  0  0  0
  -34.2558    4.9088  -43.1443 C   0  0  0  0  0  0  0  0  0  0  0  0
  -32.9630    5.6821  -43.4116 C   0  0  0  0  0  0  0  0  0  0  0  0
  -31.8781    4.7344  -43.7142 C   0  0  0  0  0  0  0  0  0  0  0  0
  -31.0408    4.0030  -43.9477 N   0  0  0  0  0  0  0  0  0  0  0  0
  -34.6959    4.1916  -44.4226 C   0  0  0  0  0  0  0  0  0  0  0  0
  -36.3899    2.5210  -45.5269 X   0  0  0  0  0  0  0  0  0  0  0  0
  1  2  1  0  0  0  0
  1  9  1  0  0  0  0
  1 10  1  0  0  0  0
  2  3  1  0  0  0  0
  3  4  1  0  0  0  0
  4  5  1  0  0  0  0
  5  6  1  0  0  0  0
  5  9  1  0  0  0  0
  6  7  1  0  0  0  0
  7  8  3  0  0  0  0
M  END
> <Index>
8047

> <PropertyFieldDistance>
nan

$$$$
11761448
BBcorina  12272117083D 1   1.00000     0.00000 
CORINA 4.3.0 0026  30.10.2019
 11 11  0  0  0  0  0  0  0  0999 V2000
  -36.0271    4.0033  -40.1438 C   0  0  0  0  0  0  0  0  0  0  0  0
  -35.1137    4.0237  -41.2426 O   0  0  0  0  0  0  0  0  0  0  0  0
  -35.2463    5.1685  -42.0875 C   0  0  0  0  0  0  0  0  0  0  0  0
  -34.9272    6.4335  -41.2883 C   0  0  0  0  0  0  0  0  0  0  0  0
  -33.5961    6.3498  -40.7755 O   0  0  0  0  0  0  0  0  0  0  0  0
  -36.6796    5.2477  -42.6204 C   0  0  0  0  0  0  0  0  0  0  0  0
  -36.9724    4.0084  -43.4693 C   0  0  0  0  0  0  0  0  0  0  0  0
  -36.0193    3.9411  -44.5845 N   0  0  0  0  0  0  0  0  0  0  0  0
  -34.6397    3.8168  -44.0973 C   0  0  0  0  0  0  0  0  0  0  0  0
  -34.2763    5.0495  -43.2662 C   0  0  0  0  0  0  0  0  0  0  0  0
  -36.4110    2.6615  -45.6489 X   0  0  0  0  0  0  0  0  0  0  0  0
  1  2  1  0  0  0  0
  2  3  1  0  0  0  0
  3  4  1  0  0  0  0
  3  6  1  0  0  0  0
  3 10  1  0  0  0  0
  4  5  1  0  0  0  0
  6  7  1  0  0  0  0
  7  8  1  0  0  0  0
  8  9  1  0  0  0  0
  8 11  1  0  0  0  0
  9 10  1  0  0  0  0
M  END
> <Index>
8054

> <PropertyFieldDistance>
nan

$$$$
10972204
BBcorina  12272117083D 1   1.00000     0.00000 
CORINA 4.3.0 0026  30.10.2019
 12 12  0  0  0  0  0  0  0  0999 V2000
  -35.6591    9.6450  -39.6273 C   0  0  0  0  0  0  0  0  0  0  0  0
  -35.1097    8.3327  -39.9767 N   0  0  0  0  0  0  0  0  0  0  0  0
  -35.4687    7.7375  -41.1314 C   0  0  0  0  0  0  0  0  0  0  0  0
  -36.2487    8.2897  -41.8831 O   0  0  0  0  0  0  0  0  0  0  0  0
  -34.9633    6.5301  -41.4528 N   0  0  0  0  0  0  0  0  0  0  0  0
  -35.3535    5.8833  -42.7079 C   0  0  0  0  0  0  0  0  0  0  0  0
  -36.6585    5.1099  -42.5008 C   0  0  0  0  0  0  0  0  0  0  0  0
  -37.0291    4.3869  -43.7977 C   0  0  0  0  0  0  0  0  0  0  0  0
  -35.9480    3.4664  -44.1723 N   0  0  0  0  0  0  0  0  0  0  0  0
  -34.6958    4.1916  -44.4226 C   0  0  0  0  0  0  0  0  0  0  0  0
  -34.2559    4.9088  -43.1442 C   0  0  0  0  0  0  0  0  0  0  0  0
  -36.3899    2.5211  -45.5270 X   0  0  0  0  0  0  0  0  0  0  0  0
  1  2  1  0  0  0  0
  2  3  1  0  0  0  0
  3  4  2  0  0  0  0
  3  5  1  0  0  0  0
  5  6  1  0  0  0  0
  6  7  1  0  0  0  0
  6 11  1  0  0  0  0
  7  8  1  0  0  0  0
  8  9  1  0  0  0  0
  9 10  1  0  0  0  0
  9 12  1  0  0  0  0
 10 11  1  0  0  0  0
M  END
> <Index>
8070

> <PropertyFieldDistance>
nan

$$$$
13210736
BBcorina  12272117083D 1   1.00000     0.00000 
CORINA 4.3.0 0026  30.10.2019
 10 10  0  0  0  0  0  0  0  0999 V2000
  -36.0173    3.5927  -44.4913 N   0  0  0  0  0  0  0  0  0  0  0  0
  -36.3933    2.1751  -44.5752 C   0  0  0  0  0  0  0  0  0  0  0  0
  -36.1059    1.6538  -45.9847 C   0  0  0  0  0  0  0  0  0  0  0  0
  -36.6121    0.2156  -46.1078 C   0  0  0  0  0  0  0  0  0  0  0  0
  -36.4082   -0.2744  -47.5452 C   0  0  0  0  0  0  0  0  0  0  0  0
  -34.9523   -0.0922  -47.9134 C   0  0  0  0  0  0  0  0  0  0  0  0
  -34.2557   -1.0845  -48.4097 C   0  0  0  0  0  0  0  0  0  0  0  0
  -34.3197    1.2632  -47.6882 C   0  0  0  0  0  0  0  0  0  0  0  0
  -34.5994    1.6975  -46.2455 C   0  0  0  0  0  0  0  0  0  0  0  0
  -36.3229    4.2163  -42.9287 X   0  0  0  0  0  0  0  0  0  0  0  0
  1  2  1  0  0  0  0
  1 10  1  0  0  0  0
  2  3  1  0  0  0  0
  3  4  1  0  0  0  0
  3  9  1  0  0  0  0
  4  5  1  0  0  0  0
  5  6  1  0  0  0  0
  6  7  2  0  0  0  0
  6  8  1  0  0  0  0
  8  9  1  0  0  0  0
M  END
> <Index>
8076

> <PropertyFieldDistance>
nan

$$$$
17548074
BBcorina  12272117083D 1   1.00000     0.00000 
CORINA 4.3.0 0026  30.10.2019
 10 10  0  0  0  0  0  0  0  0999 V2000
  -36.2799    4.1284  -43.1489 C   0  0  0  0  0  0  0  0  0  0  0  0
  -36.0173    3.5927  -44.4913 N   0  0  0  0  0  0  0  0  0  0  0  0
  -36.3933    2.1751  -44.5753 C   0  0  0  0  0  0  0  0  0  0  0  0
  -36.1059    1.6538  -45.9847 C   0  0  0  0  0  0  0  0  0  0  0  0
  -36.3796    0.1477  -46.0397 C   0  0  0  0  0  0  0  0  0  0  0  0
  -36.1654   -0.3500  -47.4715 C   0  0  0  0  0  0  0  0  0  0  0  0
  -37.0211    0.3729  -48.3587 O   0  0  0  0  0  0  0  0  0  0  0  0
  -36.7788    1.7810  -48.3849 C   0  0  0  0  0  0  0  0  0  0  0  0
  -37.0177    2.3643  -46.9897 C   0  0  0  0  0  0  0  0  0  0  0  0
  -34.3808    3.8197  -44.9323 X   0  0  0  0  0  0  0  0  0  0  0  0
  1  2  1  0  0  0  0
  2  3  1  0  0  0  0
  2 10  1  0  0  0  0
  3  4  1  0  0  0  0
  4  5  1  0  0  0  0
  4  9  1  0  0  0  0
  5  6  1  0  0  0  0
  6  7  1  0  0  0  0
  7  8  1  0  0  0  0
  8  9  1  0  0  0  0
M  END
> <Index>
8080

> <PropertyFieldDistance>
nan

$$$$
17626738
BBcorina  12272117083D 1   1.00000     0.00000 
CORINA 4.3.0 0026  30.10.2019
  9  9  0  0  0  0  0  0  0  0999 V2000
  -37.9460    5.4125  -45.9482 F   0  0  0  0  0  0  0  0  0  0  0  0
  -37.3540    5.7716  -44.7325 C   0  0  0  0  0  0  0  0  0  0  0  0
  -38.1740    6.6895  -44.0676 F   0  0  0  0  0  0  0  0  0  0  0  0
  -36.1049    6.3528  -44.9758 F   0  0  0  0  0  0  0  0  0  0  0  0
  -37.1759    4.5246  -43.8641 C   0  0  0  0  0  0  0  0  0  0  0  0
  -36.4846    4.8057  -42.5225 C   0  0  0  0  0  0  0  0  0  0  0  0
  -35.7852    3.4674  -42.7989 C   0  0  0  0  0  0  0  0  0  0  0  0
  -36.0032    3.7116  -44.2370 N   0  0  0  0  0  0  0  0  0  0  0  0
  -36.4810    2.2776  -45.0366 X   0  0  0  0  0  0  0  0  0  0  0  0
  1  2  1  0  0  0  0
  2  3  1  0  0  0  0
  2  4  1  0  0  0  0
  2  5  1  0  0  0  0
  5  6  1  0  0  0  0
  5  8  1  0  0  0  0
  6  7  1  0  0  0  0
  7  8  1  0  0  0  0
  8  9  1  0  0  0  0
M  END
> <Index>
8082

> <PropertyFieldDistance>
nan

$$$$
10121120
BBcorina  12272117083D 1   1.00000     0.00000 
CORINA 4.3.0 0026  30.10.2019
 13 14  0  0  0  0  0  0  0  0999 V2000
  -36.7666    8.3907  -42.2793 C   0  0  0  0  0  0  0  0  0  0  0  0
  -35.7096    7.8856  -41.3996 N   0  0  0  0  0  0  0  0  0  0  0  0
  -35.1431    8.5662  -40.3146 N   0  0  0  0  0  0  0  0  0  0  0  0
  -34.2294    7.8038  -39.7699 C   0  0  0  0  0  0  0  0  0  0  0  0
  -34.1747    6.6001  -40.4717 C   0  0  0  0  0  0  0  0  0  0  0  0
  -35.1050    6.6654  -41.4872 C   0  0  0  0  0  0  0  0  0  0  0  0
  -35.3924    5.6155  -42.4796 C   0  0  0  0  0  0  0  0  0  0  0  0
  -36.6226    5.1523  -42.5718 C   0  0  0  0  0  0  0  0  0  0  0  0
  -37.0231    4.0820  -43.5462 C   0  0  0  0  0  0  0  0  0  0  0  0
  -36.0024    3.9370  -44.5917 N   0  0  0  0  0  0  0  0  0  0  0  0
  -34.6699    3.7812  -43.9857 C   0  0  0  0  0  0  0  0  0  0  0  0
  -34.2693    5.1111  -43.3423 C   0  0  0  0  0  0  0  0  0  0  0  0
  -36.0346    5.2654  -45.6679 X   0  0  0  0  0  0  0  0  0  0  0  0
  1  2  1  0  0  0  0
  2  3  1  0  0  0  0
  2  6  1  0  0  0  0
  3  4  2  0  0  0  0
  4  5  1  0  0  0  0
  5  6  2  0  0  0  0
  6  7  1  0  0  0  0
  7  8  2  0  0  0  0
  7 12  1  0  0  0  0
  8  9  1  0  0  0  0
  9 10  1  0  0  0  0
 10 11  1  0  0  0  0
 10 13  1  0  0  0  0
 11 12  1  0  0  0  0
M  END
> <Index>
8085

> <PropertyFieldDistance>
nan

$$$$
12896592
BBcorina  12272117083D 1   1.00000     0.00000 
CORINA 4.3.0 0026  30.10.2019
  9  9  0  0  0  0  0  0  0  0999 V2000
  -32.5179    6.0343  -41.9777 F   0  0  0  0  0  0  0  0  0  0  0  0
  -32.8471    4.9088  -42.7405 C   0  0  0  0  0  0  0  0  0  0  0  0
  -34.2769    5.0496  -43.2665 C   0  0  0  0  0  0  0  0  0  0  0  0
  -35.2462    5.1676  -42.0870 C   0  0  0  0  0  0  0  0  0  0  0  0
  -36.6793    5.2475  -42.6202 C   0  0  0  0  0  0  0  0  0  0  0  0
  -36.9723    4.0087  -43.4695 C   0  0  0  0  0  0  0  0  0  0  0  0
  -36.0191    3.9414  -44.5845 N   0  0  0  0  0  0  0  0  0  0  0  0
  -34.6396    3.8164  -44.0970 C   0  0  0  0  0  0  0  0  0  0  0  0
  -36.4110    2.6621  -45.6495 X   0  0  0  0  0  0  0  0  0  0  0  0
  1  2  1  0  0  0  0
  2  3  1  0  0  0  0
  3  4  1  0  0  0  0
  3  8  1  0  0  0  0
  4  5  1  0  0  0  0
  5  6  1  0  0  0  0
  6  7  1  0  0  0  0
  7  8  1  0  0  0  0
  7  9  1  0  0  0  0
M  END
> <Index>
8091

> <PropertyFieldDistance>
nan

$$$$
6475526
BBcorina  12272117083D 1   1.00000     0.00000 
CORINA 4.3.0 0026  30.10.2019
 12 13  0  0  0  0  0  0  0  0999 V2000
  -35.9480    3.4664  -44.1726 N   0  0  0  0  0  0  0  0  0  0  0  0
  -37.0285    4.3875  -43.7978 C   0  0  0  0  0  0  0  0  0  0  0  0
  -36.6587    5.1097  -42.5003 C   0  0  0  0  0  0  0  0  0  0  0  0
  -35.3531    5.8829  -42.7068 C   0  0  0  0  0  0  0  0  0  0  0  0
  -34.2568    4.9089  -43.1448 C   0  0  0  0  0  0  0  0  0  0  0  0
  -32.9620    5.6840  -43.4108 C   0  0  0  0  0  0  0  0  0  0  0  0
  -32.4945    6.3347  -42.1050 C   0  0  0  0  0  0  0  0  0  0  0  0
  -32.3179    5.2516  -41.0377 C   0  0  0  0  0  0  0  0  0  0  0  0
  -33.5508    4.5508  -40.8623 O   0  0  0  0  0  0  0  0  0  0  0  0
  -34.0136    3.8816  -42.0372 C   0  0  0  0  0  0  0  0  0  0  0  0
  -34.6953    4.1911  -44.4222 C   0  0  0  0  0  0  0  0  0  0  0  0
  -36.3903    2.5222  -45.5279 X   0  0  0  0  0  0  0  0  0  0  0  0
  1  2  1  0  0  0  0
  1 11  1  0  0  0  0
  1 12  1  0  0  0  0
  2  3  1  0  0  0  0
  3  4  1  0  0  0  0
  4  5  1  0  0  0  0
  5  6  1  0  0  0  0
  5 10  1  0  0  0  0
  5 11  1  0  0  0  0
  6  7  1  0  0  0  0
  7  8  1  0  0  0  0
  8  9  1  0  0  0  0
  9 10  1  0  0  0  0
M  END
> <Index>
8093

> <PropertyFieldDistance>
nan

$$$$
11401412
BBcorina  12272117083D 1   1.00000     0.00000 
CORINA 4.3.0 0026  30.10.2019
 11 11  0  0  0  0  0  0  0  0999 V2000
  -36.3302    2.3511  -45.0030 C   0  0  0  0  0  0  0  0  0  0  0  0
  -35.9848    3.4656  -44.1171 N   0  0  0  0  0  0  0  0  0  0  0  0
  -37.0418    4.0334  -43.2897 C   0  0  0  0  0  0  0  0  0  0  0  0
  -36.6519    5.4314  -42.8080 C   0  0  0  0  0  0  0  0  0  0  0  0
  -35.2516    5.3639  -42.1867 C   0  0  0  0  0  0  0  0  0  0  0  0
  -34.9115    6.7061  -41.5359 C   0  0  0  0  0  0  0  0  0  0  0  0
  -33.6165    6.6035  -40.8499 N   0  0  0  0  0  0  0  0  0  0  0  0
  -34.2430    5.0593  -43.2971 C   0  0  0  0  0  0  0  0  0  0  0  0
  -34.7230    3.8969  -44.1182 C   0  0  0  0  0  0  0  0  0  0  0  0
  -33.9196    3.3196  -44.8200 O   0  0  0  0  0  0  0  0  0  0  0  0
  -33.1975    8.0857  -40.1070 X   0  0  0  0  0  0  0  0  0  0  0  0
  1  2  1  0  0  0  0
  2  3  1  0  0  0  0
  2  9  1  0  0  0  0
  3  4  1  0  0  0  0
  4  5  1  0  0  0  0
  5  6  1  0  0  0  0
  5  8  1  0  0  0  0
  6  7  1  0  0  0  0
  7 11  1  0  0  0  0
  8  9  1  0  0  0  0
  9 10  2  0  0  0  0
M  END
> <Index>
8109

> <PropertyFieldDistance>
nan

$$$$
13970442
BBcorina  12272117083D 1   1.00000     0.00000 
CORINA 4.3.0 0026  30.10.2019
 13 14  0  0  0  0  0  0  0  0999 V2000
  -33.9238    8.6545  -42.3724 C   0  0  0  0  0  0  0  0  0  0  0  0
  -34.3286    7.7609  -41.2845 N   0  0  0  0  0  0  0  0  0  0  0  0
  -34.1578    7.9790  -39.9627 C   0  0  0  0  0  0  0  0  0  0  0  0
  -34.6394    6.9600  -39.3049 N   0  0  0  0  0  0  0  0  0  0  0  0
  -35.1344    6.0664  -40.1740 C   0  0  0  0  0  0  0  0  0  0  0  0
  -34.9527    6.5499  -41.4177 C   0  0  0  0  0  0  0  0  0  0  0  0
  -35.3535    5.8831  -42.7083 C   0  0  0  0  0  0  0  0  0  0  0  0
  -36.6588    5.1098  -42.5008 C   0  0  0  0  0  0  0  0  0  0  0  0
  -37.0292    4.3868  -43.7978 C   0  0  0  0  0  0  0  0  0  0  0  0
  -35.9482    3.4661  -44.1723 N   0  0  0  0  0  0  0  0  0  0  0  0
  -34.6961    4.1914  -44.4229 C   0  0  0  0  0  0  0  0  0  0  0  0
  -34.2549    4.9095  -43.1439 C   0  0  0  0  0  0  0  0  0  0  0  0
  -36.3903    2.5207  -45.5269 X   0  0  0  0  0  0  0  0  0  0  0  0
  1  2  1  0  0  0  0
  2  3  1  0  0  0  0
  2  6  1  0  0  0  0
  3  4  2  0  0  0  0
  4  5  1  0  0  0  0
  5  6  2  0  0  0  0
  6  7  1  0  0  0  0
  7  8  1  0  0  0  0
  7 12  1  0  0  0  0
  8  9  1  0  0  0  0
  9 10  1  0  0  0  0
 10 11  1  0  0  0  0
 10 13  1  0  0  0  0
 11 12  1  0  0  0  0
M  END
> <Index>
8114

> <PropertyFieldDistance>
nan

$$$$
8594116
BBcorina  12272117083D 1   1.00000     0.00000 
CORINA 4.3.0 0026  30.10.2019
 10 10  0  0  0  0  0  0  0  0999 V2000
  -34.9460    6.5579  -41.3957 C   0  0  0  0  0  0  0  0  0  0  0  0
  -35.3532    5.8831  -42.7070 C   0  0  0  0  0  0  0  0  0  0  0  0
  -36.6587    5.1099  -42.5007 C   0  0  0  0  0  0  0  0  0  0  0  0
  -37.0290    4.3869  -43.7977 C   0  0  0  0  0  0  0  0  0  0  0  0
  -35.9480    3.4664  -44.1723 N   0  0  0  0  0  0  0  0  0  0  0  0
  -34.6958    4.1917  -44.4226 C   0  0  0  0  0  0  0  0  0  0  0  0
  -34.2558    4.9088  -43.1443 C   0  0  0  0  0  0  0  0  0  0  0  0
  -35.5461    6.9051  -43.7485 C   0  0  0  0  0  0  0  0  0  0  0  0
  -35.6950    7.6940  -44.5524 N   0  0  0  0  0  0  0  0  0  0  0  0
  -36.3899    2.5211  -45.5270 X   0  0  0  0  0  0  0  0  0  0  0  0
  1  2  1  0  0  0  0
  2  3  1  0  0  0  0
  2  7  1  0  0  0  0
  2  8  1  0  0  0  0
  3  4  1  0  0  0  0
  4  5  1  0  0  0  0
  5  6  1  0  0  0  0
  5 10  1  0  0  0  0
  6  7  1  0  0  0  0
  8  9  3  0  0  0  0
M  END
> <Index>
8117

> <PropertyFieldDistance>
nan

$$$$
6008566
BBcorina  12272117083D 1   1.00000     0.00000 
CORINA 4.3.0 0026  30.10.2019
 10 10  0  0  0  0  0  0  0  0999 V2000
  -33.4572    6.4118  -40.8647 C   0  0  0  0  0  0  0  0  0  0  0  0
  -34.9272    6.4334  -41.2883 C   0  0  0  0  0  0  0  0  0  0  0  0
  -35.2463    5.1684  -42.0875 C   0  0  0  0  0  0  0  0  0  0  0  0
  -35.1138    4.0236  -41.2426 O   0  0  0  0  0  0  0  0  0  0  0  0
  -36.6796    5.2477  -42.6204 C   0  0  0  0  0  0  0  0  0  0  0  0
  -36.9724    4.0085  -43.4693 C   0  0  0  0  0  0  0  0  0  0  0  0
  -36.0194    3.9411  -44.5845 N   0  0  0  0  0  0  0  0  0  0  0  0
  -34.6397    3.8168  -44.0972 C   0  0  0  0  0  0  0  0  0  0  0  0
  -34.2763    5.0495  -43.2662 C   0  0  0  0  0  0  0  0  0  0  0  0
  -36.4110    2.6614  -45.6489 X   0  0  0  0  0  0  0  0  0  0  0  0
  1  2  1  0  0  0  0
  2  3  1  0  0  0  0
  3  4  1  0  0  0  0
  3  5  1  0  0  0  0
  3  9  1  0  0  0  0
  5  6  1  0  0  0  0
  6  7  1  0  0  0  0
  7  8  1  0  0  0  0
  7 10  1  0  0  0  0
  8  9  1  0  0  0  0
M  END
> <Index>
8122

> <PropertyFieldDistance>
nan

$$$$
12638972
BBcorina  12272117083D 1   1.00000     0.00000 
CORINA 4.3.0 0026  30.10.2019
 12 13  0  0  0  0  0  0  0  0999 V2000
  -36.1111    2.4406  -43.7864 C   0  0  0  0  0  0  0  0  0  0  0  0
  -36.0442    3.6947  -44.5484 N   0  0  0  0  0  0  0  0  0  0  0  0
  -36.9857    4.6890  -44.0111 C   0  0  0  0  0  0  0  0  0  0  0  0
  -36.7506    4.8644  -42.5056 C   0  0  0  0  0  0  0  0  0  0  0  0
  -35.3171    5.0836  -42.2873 N   0  0  0  0  0  0  0  0  0  0  0  0
  -34.6832    5.5956  -41.1562 N   0  0  0  0  0  0  0  0  0  0  0  0
  -33.3901    5.6254  -41.3922 C   0  0  0  0  0  0  0  0  0  0  0  0
  -32.4032    6.0739  -40.5063 N   0  0  0  0  0  0  0  0  0  0  0  0
  -33.1704    5.1276  -42.6895 C   0  0  0  0  0  0  0  0  0  0  0  0
  -34.3665    4.8027  -43.2118 C   0  0  0  0  0  0  0  0  0  0  0  0
  -34.6697    4.2256  -44.5723 C   0  0  0  0  0  0  0  0  0  0  0  0
  -32.8428    6.6511  -38.9580 X   0  0  0  0  0  0  0  0  0  0  0  0
  1  2  1  0  0  0  0
  2  3  1  0  0  0  0
  2 11  1  0  0  0  0
  3  4  1  0  0  0  0
  4  5  1  0  0  0  0
  5  6  1  0  0  0  0
  5 10  1  0  0  0  0
  6  7  2  0  0  0  0
  7  8  1  0  0  0  0
  7  9  1  0  0  0  0
  8 12  1  0  0  0  0
  9 10  2  0  0  0  0
 10 11  1  0  0  0  0
M  END
> <Index>
8125

> <PropertyFieldDistance>
nan

$$$$
16768940
BBcorina  12272117083D 1   1.00000     0.00000 
CORINA 4.3.0 0026  30.10.2019
 11 12  0  0  0  0  0  0  0  0999 V2000
  -34.2479    5.7753  -44.3981 N   0  0  0  0  0  0  0  0  0  0  0  0
  -35.0559    4.5486  -44.4205 C   0  0  0  0  0  0  0  0  0  0  0  0
  -36.5394    4.9134  -44.3405 C   0  0  0  0  0  0  0  0  0  0  0  0
  -37.3873    3.6420  -44.4055 C   0  0  0  0  0  0  0  0  0  0  0  0
  -37.0552    2.7463  -43.2085 C   0  0  0  0  0  0  0  0  0  0  0  0
  -35.5630    2.4214  -43.2220 C   0  0  0  0  0  0  0  0  0  0  0  0
  -35.1704    1.3940  -44.2915 C   0  0  0  0  0  0  0  0  0  0  0  0
  -34.2241    0.7850  -43.2425 C   0  0  0  0  0  0  0  0  0  0  0  0
  -35.1502    1.3827  -42.1690 C   0  0  0  0  0  0  0  0  0  0  0  0
  -34.6823    3.6692  -43.2237 C   0  0  0  0  0  0  0  0  0  0  0  0
  -33.9777    6.3601  -45.9821 X   0  0  0  0  0  0  0  0  0  0  0  0
  1  2  1  0  0  0  0
  1 11  1  0  0  0  0
  2  3  1  0  0  0  0
  2 10  1  0  0  0  0
  3  4  1  0  0  0  0
  4  5  1  0  0  0  0
  5  6  1  0  0  0  0
  6  7  1  0  0  0  0
  6  9  1  0  0  0  0
  6 10  1  0  0  0  0
  7  8  1  0  0  0  0
  8  9  1  0  0  0  0
M  END
> <Index>
8127

> <PropertyFieldDistance>
nan

$$$$
9194070
BBcorina  12272117083D 1   1.00000     0.00000 
CORINA 4.3.0 0026  30.10.2019
  7  7  0  0  0  0  0  0  0  0999 V2000
  -35.7766    2.1904  -45.3857 N   0  0  0  0  0  0  0  0  0  0  0  0
  -35.2672    3.3013  -44.5705 C   0  0  0  0  0  0  0  0  0  0  0  0
  -34.4685    2.7640  -43.3619 C   0  0  0  0  0  0  0  0  0  0  0  0
  -35.2437    3.2881  -42.1328 C   0  0  0  0  0  0  0  0  0  0  0  0
  -35.9569    4.4497  -42.6167 O   0  0  0  0  0  0  0  0  0  0  0  0
  -36.4336    4.0864  -43.9306 C   0  0  0  0  0  0  0  0  0  0  0  0
  -36.8101    1.1819  -44.4698 X   0  0  0  0  0  0  0  0  0  0  0  0
  1  2  1  0  0  0  0
  1  7  1  0  0  0  0
  2  3  1  0  0  0  0
  2  6  1  0  0  0  0
  3  4  1  0  0  0  0
  4  5  1  0  0  0  0
  5  6  1  0  0  0  0
M  END
> <Index>
8129

> <PropertyFieldDistance>
nan

$$$$
8694950
BBcorina  12272117083D 1   1.00000     0.00000 
CORINA 4.3.0 0026  30.10.2019
 10 10  0  0  0  0  0  0  0  0999 V2000
  -32.8468    4.9092  -42.7413 C   0  0  0  0  0  0  0  0  0  0  0  0
  -34.2769    5.0496  -43.2664 C   0  0  0  0  0  0  0  0  0  0  0  0
  -35.2462    5.1675  -42.0868 C   0  0  0  0  0  0  0  0  0  0  0  0
  -36.6793    5.2476  -42.6203 C   0  0  0  0  0  0  0  0  0  0  0  0
  -36.9723    4.0086  -43.4694 C   0  0  0  0  0  0  0  0  0  0  0  0
  -36.0191    3.9414  -44.5845 N   0  0  0  0  0  0  0  0  0  0  0  0
  -34.6396    3.8164  -44.0971 C   0  0  0  0  0  0  0  0  0  0  0  0
  -34.3762    6.2544  -44.1062 C   0  0  0  0  0  0  0  0  0  0  0  0
  -34.4527    7.1842  -44.7544 N   0  0  0  0  0  0  0  0  0  0  0  0
  -36.4111    2.6624  -45.6495 X   0  0  0  0  0  0  0  0  0  0  0  0
  1  2  1  0  0  0  0
  2  3  1  0  0  0  0
  2  7  1  0  0  0  0
  2  8  1  0  0  0  0
  3  4  1  0  0  0  0
  4  5  1  0  0  0  0
  5  6  1  0  0  0  0
  6  7  1  0  0  0  0
  6 10  1  0  0  0  0
  8  9  3  0  0  0  0
M  END
> <Index>
8134

> <PropertyFieldDistance>
nan

$$$$
13970548
BBcorina  12272117083D 1   1.00000     0.00000 
CORINA 4.3.0 0026  30.10.2019
 11 12  0  0  0  0  0  0  0  0999 V2000
  -35.9486    3.4663  -44.1728 N   0  0  0  0  0  0  0  0  0  0  0  0
  -37.0268    4.3904  -43.7989 C   0  0  0  0  0  0  0  0  0  0  0  0
  -36.6590    5.1079  -42.4982 C   0  0  0  0  0  0  0  0  0  0  0  0
  -35.3532    5.8815  -42.6995 C   0  0  0  0  0  0  0  0  0  0  0  0
  -34.2594    4.9110  -43.1466 C   0  0  0  0  0  0  0  0  0  0  0  0
  -32.9581    5.6927  -43.4161 C   0  0  0  0  0  0  0  0  0  0  0  0
  -32.1656    5.4752  -42.0977 C   0  0  0  0  0  0  0  0  0  0  0  0
  -32.6127    4.0408  -41.7183 C   0  0  0  0  0  0  0  0  0  0  0  0
  -33.9931    3.9619  -42.1101 O   0  0  0  0  0  0  0  0  0  0  0  0
  -34.6935    4.1880  -44.4211 C   0  0  0  0  0  0  0  0  0  0  0  0
  -36.3922    2.5238  -45.5289 X   0  0  0  0  0  0  0  0  0  0  0  0
  1  2  1  0  0  0  0
  1 10  1  0  0  0  0
  1 11  1  0  0  0  0
  2  3  1  0  0  0  0
  3  4  1  0  0  0  0
  4  5  1  0  0  0  0
  5  6  1  0  0  0  0
  5  9  1  0  0  0  0
  5 10  1  0  0  0  0
  6  7  1  0  0  0  0
  7  8  1  0  0  0  0
  8  9  1  0  0  0  0
M  END
> <Index>
8137

> <PropertyFieldDistance>
nan

$$$$
14585960
BBcorina  12272117083D 1   1.00000     0.00000 
CORINA 4.3.0 0026  30.10.2019
 12 13  0  0  0  0  0  0  0  0999 V2000
  -35.9471    3.4671  -44.1698 N   0  0  0  0  0  0  0  0  0  0  0  0
  -37.0300    4.3869  -43.7984 C   0  0  0  0  0  0  0  0  0  0  0  0
  -36.6630    5.1093  -42.4993 C   0  0  0  0  0  0  0  0  0  0  0  0
  -35.3518    5.8671  -42.6965 C   0  0  0  0  0  0  0  0  0  0  0  0
  -34.9414    6.5529  -41.3788 C   0  0  0  0  0  0  0  0  0  0  0  0
  -34.2991    7.8636  -41.8970 C   0  0  0  0  0  0  0  0  0  0  0  0
  -34.9426    8.0811  -43.2491 C   0  0  0  0  0  0  0  0  0  0  0  0
  -34.9315    9.1266  -43.8637 O   0  0  0  0  0  0  0  0  0  0  0  0
  -35.5240    6.9442  -43.6727 N   0  0  0  0  0  0  0  0  0  0  0  0
  -34.2516    4.9083  -43.1459 C   0  0  0  0  0  0  0  0  0  0  0  0
  -34.6956    4.1920  -44.4242 C   0  0  0  0  0  0  0  0  0  0  0  0
  -36.3884    2.5139  -45.5192 X   0  0  0  0  0  0  0  0  0  0  0  0
  1  2  1  0  0  0  0
  1 11  1  0  0  0  0
  1 12  1  0  0  0  0
  2  3  1  0  0  0  0
  3  4  1  0  0  0  0
  4  5  1  0  0  0  0
  4  9  1  0  0  0  0
  4 10  1  0  0  0  0
  5  6  1  0  0  0  0
  6  7  1  0  0  0  0
  7  8  2  0  0  0  0
  7  9  1  0  0  0  0
 10 11  1  0  0  0  0
M  END
> <Index>
8151

> <PropertyFieldDistance>
nan

$$$$
13807968
BBcorina  12272117083D 1   1.00000     0.00000 
CORINA 4.3.0 0026  30.10.2019
 13 14  0  0  0  0  0  0  0  0999 V2000
  -36.3376    2.2596  -44.8226 C   0  0  0  0  0  0  0  0  0  0  0  0
  -35.9670    3.5272  -44.1884 N   0  0  0  0  0  0  0  0  0  0  0  0
  -37.0193    4.3960  -43.6756 C   0  0  0  0  0  0  0  0  0  0  0  0
  -36.6368    5.0739  -42.3606 C   0  0  0  0  0  0  0  0  0  0  0  0
  -35.2876    5.6282  -42.4788 N   0  0  0  0  0  0  0  0  0  0  0  0
  -34.7057    6.7301  -41.8664 N   0  0  0  0  0  0  0  0  0  0  0  0
  -33.4617    6.8384  -42.2888 C   0  0  0  0  0  0  0  0  0  0  0  0
  -32.5507    7.8277  -41.8987 N   0  0  0  0  0  0  0  0  0  0  0  0
  -33.2033    5.8016  -43.1986 C   0  0  0  0  0  0  0  0  0  0  0  0
  -34.3409    5.0579  -43.3016 C   0  0  0  0  0  0  0  0  0  0  0  0
  -34.6558    3.8577  -44.0954 C   0  0  0  0  0  0  0  0  0  0  0  0
  -33.7877    3.1998  -44.6366 O   0  0  0  0  0  0  0  0  0  0  0  0
  -30.9636    7.8274  -42.5353 X   0  0  0  0  0  0  0  0  0  0  0  0
  1  2  1  0  0  0  0
  2  3  1  0  0  0  0
  2 11  1  0  0  0  0
  3  4  1  0  0  0  0
  4  5  1  0  0  0  0
  5  6  1  0  0  0  0
  5 10  1  0  0  0  0
  6  7  2  0  0  0  0
  7  8  1  0  0  0  0
  7  9  1  0  0  0  0
  8 13  1  0  0  0  0
  9 10  2  0  0  0  0
 10 11  1  0  0  0  0
 11 12  2  0  0  0  0
M  END
> <Index>
8160

> <PropertyFieldDistance>
nan

$$$$
9359298
BBcorina  12272117083D 1   1.00000     0.00000 
CORINA 4.3.0 0026  30.10.2019
 10 11  0  0  0  0  0  0  0  0999 V2000
  -32.8714    4.6487  -43.7881 N   0  0  0  0  0  0  0  0  0  0  0  0
  -33.8485    3.5518  -43.7846 C   0  0  0  0  0  0  0  0  0  0  0  0
  -34.7342    3.6561  -45.0272 C   0  0  0  0  0  0  0  0  0  0  0  0
  -35.7023    2.4696  -45.0645 C   0  0  0  0  0  0  0  0  0  0  0  0
  -36.5126    2.4499  -43.7651 C   0  0  0  0  0  0  0  0  0  0  0  0
  -37.8457    3.1973  -43.7484 C   0  0  0  0  0  0  0  0  0  0  0  0
  -37.8249    1.6671  -43.7568 C   0  0  0  0  0  0  0  0  0  0  0  0
  -35.6776    2.4557  -42.4813 C   0  0  0  0  0  0  0  0  0  0  0  0
  -34.7102    3.6426  -42.5244 C   0  0  0  0  0  0  0  0  0  0  0  0
  -33.6557    6.1681  -43.7773 X   0  0  0  0  0  0  0  0  0  0  0  0
  1  2  1  0  0  0  0
  1 10  1  0  0  0  0
  2  3  1  0  0  0  0
  2  9  1  0  0  0  0
  3  4  1  0  0  0  0
  4  5  1  0  0  0  0
  5  6  1  0  0  0  0
  5  7  1  0  0  0  0
  5  8  1  0  0  0  0
  6  7  1  0  0  0  0
  8  9  1  0  0  0  0
M  END
> <Index>
8161

> <PropertyFieldDistance>
nan

$$$$
15729788
BBcorina  12272117083D 1   1.00000     0.00000 
CORINA 4.3.0 0026  30.10.2019
  9  9  0  0  0  0  0  0  0  0999 V2000
  -31.8592    4.8769  -43.1459 C   0  0  0  0  0  0  0  0  0  0  0  0
  -33.0478    5.6303  -43.3937 O   0  0  0  0  0  0  0  0  0  0  0  0
  -34.2559    4.9088  -43.1443 C   0  0  0  0  0  0  0  0  0  0  0  0
  -35.3534    5.8832  -42.7079 C   0  0  0  0  0  0  0  0  0  0  0  0
  -36.6587    5.1099  -42.5007 C   0  0  0  0  0  0  0  0  0  0  0  0
  -37.0291    4.3869  -43.7977 C   0  0  0  0  0  0  0  0  0  0  0  0
  -35.9479    3.4664  -44.1723 N   0  0  0  0  0  0  0  0  0  0  0  0
  -34.6958    4.1916  -44.4226 C   0  0  0  0  0  0  0  0  0  0  0  0
  -36.3899    2.5210  -45.5270 X   0  0  0  0  0  0  0  0  0  0  0  0
  1  2  1  0  0  0  0
  2  3  1  0  0  0  0
  3  4  1  0  0  0  0
  3  8  1  0  0  0  0
  4  5  1  0  0  0  0
  5  6  1  0  0  0  0
  6  7  1  0  0  0  0
  7  8  1  0  0  0  0
  7  9  1  0  0  0  0
M  END
> <Index>
8162

> <PropertyFieldDistance>
nan

$$$$
8761252
BBcorina  12272117083D 1   1.00000     0.00000 
CORINA 4.3.0 0026  30.10.2019
 14 15  0  0  0  0  0  0  0  0999 V2000
  -37.4623    0.0709  -48.0081 F   0  0  0  0  0  0  0  0  0  0  0  0
  -37.0866    0.8783  -46.9920 C   0  0  0  0  0  0  0  0  0  0  0  0
  -35.8342    0.7482  -46.4085 C   0  0  0  0  0  0  0  0  0  0  0  0
  -35.4988    1.5550  -45.4152 N   0  0  0  0  0  0  0  0  0  0  0  0
  -36.3422    2.4780  -44.9776 C   0  0  0  0  0  0  0  0  0  0  0  0
  -37.5466    2.6257  -45.5087 N   0  0  0  0  0  0  0  0  0  0  0  0
  -37.9446    1.8560  -46.5083 C   0  0  0  0  0  0  0  0  0  0  0  0
  -35.9573    3.3052  -43.9351 N   0  0  0  0  0  0  0  0  0  0  0  0
  -37.0245    4.2570  -43.5964 C   0  0  0  0  0  0  0  0  0  0  0  0
  -36.5922    5.0968  -42.3923 C   0  0  0  0  0  0  0  0  0  0  0  0
  -35.3437    5.8024  -42.7133 N   0  0  0  0  0  0  0  0  0  0  0  0
  -34.2763    4.8506  -43.0520 C   0  0  0  0  0  0  0  0  0  0  0  0
  -34.7088    4.0107  -44.2562 C   0  0  0  0  0  0  0  0  0  0  0  0
  -34.8685    6.8234  -41.4265 X   0  0  0  0  0  0  0  0  0  0  0  0
  1  2  1  0  0  0  0
  2  3  2  0  0  0  0
  2  7  1  0  0  0  0
  3  4  1  0  0  0  0
  4  5  2  0  0  0  0
  5  6  1  0  0  0  0
  5  8  1  0  0  0  0
  6  7  2  0  0  0  0
  8  9  1  0  0  0  0
  8 13  1  0  0  0  0
  9 10  1  0  0  0  0
 10 11  1  0  0  0  0
 11 12  1  0  0  0  0
 11 14  1  0  0  0  0
 12 13  1  0  0  0  0
M  END
> <Index>
8167

> <PropertyFieldDistance>
nan

$$$$
12858860
BBcorina  12272117083D 1   1.00000     0.00000 
CORINA 4.3.0 0026  30.10.2019
 13 14  0  0  0  0  0  0  0  0999 V2000
  -36.4311    2.6231  -45.2663 C   0  0  0  0  0  0  0  0  0  0  0  0
  -35.9890    3.2950  -44.0369 N   0  0  0  0  0  0  0  0  0  0  0  0
  -37.0103    4.2348  -43.5538 C   0  0  0  0  0  0  0  0  0  0  0  0
  -36.5466    4.8531  -42.2328 C   0  0  0  0  0  0  0  0  0  0  0  0
  -35.2619    5.5361  -42.4388 N   0  0  0  0  0  0  0  0  0  0  0  0
  -34.2407    4.5962  -42.9218 C   0  0  0  0  0  0  0  0  0  0  0  0
  -34.7042    3.9779  -44.2429 C   0  0  0  0  0  0  0  0  0  0  0  0
  -34.8198    6.2077  -41.2094 C   0  0  0  0  0  0  0  0  0  0  0  0
  -33.4418    6.8743  -41.4255 C   0  0  0  0  0  0  0  0  0  0  0  0
  -33.5763    8.2081  -40.6488 C   0  0  0  0  0  0  0  0  0  0  0  0
  -34.9823    8.6114  -40.9069 N   0  0  0  0  0  0  0  0  0  0  0  0
  -35.7750    7.3636  -40.8588 C   0  0  0  0  0  0  0  0  0  0  0  0
  -35.5253    9.7281  -39.7314 X   0  0  0  0  0  0  0  0  0  0  0  0
  1  2  1  0  0  0  0
  2  3  1  0  0  0  0
  2  7  1  0  0  0  0
  3  4  1  0  0  0  0
  4  5  1  0  0  0  0
  5  6  1  0  0  0  0
  5  8  1  0  0  0  0
  6  7  1  0  0  0  0
  8  9  1  0  0  0  0
  8 12  1  0  0  0  0
  9 10  1  0  0  0  0
 10 11  1  0  0  0  0
 11 12  1  0  0  0  0
 11 13  1  0  0  0  0
M  END
> <Index>
8172

> <PropertyFieldDistance>
nan

$$$$
13315570
BBcorina  12272117083D 1   1.00000     0.00000 
CORINA 4.3.0 0026  30.10.2019
 10 10  0  0  0  0  0  0  0  0999 V2000
  -37.5650    5.3158  -41.4216 C   0  0  0  0  0  0  0  0  0  0  0  0
  -36.6293    5.2502  -42.6304 C   0  0  0  0  0  0  0  0  0  0  0  0
  -36.9724    4.0211  -43.4763 C   0  0  0  0  0  0  0  0  0  0  0  0
  -36.0216    3.9203  -44.5930 N   0  0  0  0  0  0  0  0  0  0  0  0
  -34.6419    3.8204  -44.0951 C   0  0  0  0  0  0  0  0  0  0  0  0
  -34.3222    5.0515  -43.2429 C   0  0  0  0  0  0  0  0  0  0  0  0
  -35.2752    5.1506  -42.1812 O   0  0  0  0  0  0  0  0  0  0  0  0
  -36.7893    6.4667  -43.4435 C   0  0  0  0  0  0  0  0  0  0  0  0
  -36.9127    7.4057  -44.0710 N   0  0  0  0  0  0  0  0  0  0  0  0
  -36.4046    2.5974  -45.6065 X   0  0  0  0  0  0  0  0  0  0  0  0
  1  2  1  0  0  0  0
  2  3  1  0  0  0  0
  2  7  1  0  0  0  0
  2  8  1  0  0  0  0
  3  4  1  0  0  0  0
  4  5  1  0  0  0  0
  4 10  1  0  0  0  0
  5  6  1  0  0  0  0
  6  7  1  0  0  0  0
  8  9  3  0  0  0  0
M  END
> <Index>
8178

> <PropertyFieldDistance>
nan

$$$$
9162796
BBcorina  12272117083D 1   1.00000     0.00000 
CORINA 4.3.0 0026  30.10.2019
 10 10  0  0  0  0  0  0  0  0999 V2000
  -37.2681    6.8693  -40.8595 C   0  0  0  0  0  0  0  0  0  0  0  0
  -37.6835    6.1406  -42.1392 C   0  0  0  0  0  0  0  0  0  0  0  0
  -36.6101    5.1169  -42.5144 C   0  0  0  0  0  0  0  0  0  0  0  0
  -36.4492    4.1044  -41.3787 C   0  0  0  0  0  0  0  0  0  0  0  0
  -37.0250    4.3873  -43.7948 C   0  0  0  0  0  0  0  0  0  0  0  0
  -35.9555    3.4606  -44.1931 N   0  0  0  0  0  0  0  0  0  0  0  0
  -34.6941    4.1835  -44.4110 C   0  0  0  0  0  0  0  0  0  0  0  0
  -34.3026    4.9153  -43.1244 C   0  0  0  0  0  0  0  0  0  0  0  0
  -35.3668    5.7880  -42.7357 O   0  0  0  0  0  0  0  0  0  0  0  0
  -36.4009    2.5721  -45.5846 X   0  0  0  0  0  0  0  0  0  0  0  0
  1  2  1  0  0  0  0
  2  3  1  0  0  0  0
  3  4  1  0  0  0  0
  3  5  1  0  0  0  0
  3  9  1  0  0  0  0
  5  6  1  0  0  0  0
  6  7  1  0  0  0  0
  6 10  1  0  0  0  0
  7  8  1  0  0  0  0
  8  9  1  0  0  0  0
M  END
> <Index>
8182

> <PropertyFieldDistance>
nan

$$$$
6741236
BBcorina  12272117083D 1   1.00000     0.00000 
CORINA 4.3.0 0026  30.10.2019
 10 11  0  0  0  0  0  0  0  0999 V2000
  -35.9364    3.9965  -44.6686 N   0  0  0  0  0  0  0  0  0  0  0  0
  -37.1266    4.0108  -43.7922 C   0  0  0  0  0  0  0  0  0  0  0  0
  -36.2379    4.7028  -42.7452 C   0  0  0  0  0  0  0  0  0  0  0  0
  -36.2284    6.2133  -42.8622 C   0  0  0  0  0  0  0  0  0  0  0  0
  -35.3543    6.8711  -41.8225 C   0  0  0  0  0  0  0  0  0  0  0  0
  -33.9063    6.9918  -42.1980 C   0  0  0  0  0  0  0  0  0  0  0  0
  -33.3540    5.5484  -42.3587 C   0  0  0  0  0  0  0  0  0  0  0  0
  -33.8706    5.0333  -43.7085 C   0  0  0  0  0  0  0  0  0  0  0  0
  -35.0326    4.0683  -43.5012 C   0  0  0  0  0  0  0  0  0  0  0  0
  -35.7837    2.4937  -45.4702 X   0  0  0  0  0  0  0  0  0  0  0  0
  1  2  1  0  0  0  0
  1  9  1  0  0  0  0
  1 10  1  0  0  0  0
  2  3  1  0  0  0  0
  3  4  1  0  0  0  0
  3  9  1  0  0  0  0
  4  5  1  0  0  0  0
  5  6  1  0  0  0  0
  6  7  1  0  0  0  0
  7  8  1  0  0  0  0
  8  9  1  0  0  0  0
M  END
> <Index>
8184

> <PropertyFieldDistance>
nan

$$$$
14183378
BBcorina  12272117083D 1   1.00000     0.00000 
CORINA 4.3.0 0026  30.10.2019
 10 10  0  0  0  0  0  0  0  0999 V2000
  -31.9607    4.7911  -43.8102 F   0  0  0  0  0  0  0  0  0  0  0  0
  -32.9630    5.6821  -43.4116 C   0  0  0  0  0  0  0  0  0  0  0  0
  -33.1823    6.6211  -44.4252 F   0  0  0  0  0  0  0  0  0  0  0  0
  -34.2558    4.9088  -43.1443 C   0  0  0  0  0  0  0  0  0  0  0  0
  -35.3535    5.8832  -42.7080 C   0  0  0  0  0  0  0  0  0  0  0  0
  -36.6587    5.1099  -42.5007 C   0  0  0  0  0  0  0  0  0  0  0  0
  -37.0290    4.3869  -43.7977 C   0  0  0  0  0  0  0  0  0  0  0  0
  -35.9479    3.4664  -44.1723 N   0  0  0  0  0  0  0  0  0  0  0  0
  -34.6959    4.1916  -44.4226 C   0  0  0  0  0  0  0  0  0  0  0  0
  -36.3899    2.5210  -45.5269 X   0  0  0  0  0  0  0  0  0  0  0  0
  1  2  1  0  0  0  0
  2  3  1  0  0  0  0
  2  4  1  0  0  0  0
  4  5  1  0  0  0  0
  4  9  1  0  0  0  0
  5  6  1  0  0  0  0
  6  7  1  0  0  0  0
  7  8  1  0  0  0  0
  8  9  1  0  0  0  0
  8 10  1  0  0  0  0
M  END
> <Index>
8189

> <PropertyFieldDistance>
nan

$$$$
11986336
BBcorina  12272117083D 1   1.00000     0.00000 
CORINA 4.3.0 0026  30.10.2019
 12 13  0  0  0  0  0  0  0  0999 V2000
  -36.0191    3.9414  -44.5845 N   0  0  0  0  0  0  0  0  0  0  0  0
  -36.9723    4.0087  -43.4695 C   0  0  0  0  0  0  0  0  0  0  0  0
  -36.6793    5.2476  -42.6202 C   0  0  0  0  0  0  0  0  0  0  0  0
  -35.2462    5.1676  -42.0870 C   0  0  0  0  0  0  0  0  0  0  0  0
  -34.2770    5.0496  -43.2665 C   0  0  0  0  0  0  0  0  0  0  0  0
  -34.6396    3.8164  -44.0970 C   0  0  0  0  0  0  0  0  0  0  0  0
  -34.9316    6.4133  -41.2993 C   0  0  0  0  0  0  0  0  0  0  0  0
  -34.4963    7.5398  -41.8716 C   0  0  0  0  0  0  0  0  0  0  0  0
  -34.2548    8.7356  -40.6003 S   0  0  0  0  0  0  0  0  0  0  0  0
  -34.7631    7.6019  -39.4257 C   0  0  0  0  0  0  0  0  0  0  0  0
  -35.0685    6.4828  -39.9906 N   0  0  0  0  0  0  0  0  0  0  0  0
  -36.4111    2.6621  -45.6494 X   0  0  0  0  0  0  0  0  0  0  0  0
  1  2  1  0  0  0  0
  1  6  1  0  0  0  0
  1 12  1  0  0  0  0
  2  3  1  0  0  0  0
  3  4  1  0  0  0  0
  4  5  1  0  0  0  0
  4  7  1  0  0  0  0
  5  6  1  0  0  0  0
  7  8  2  0  0  0  0
  7 11  1  0  0  0  0
  8  9  1  0  0  0  0
  9 10  1  0  0  0  0
 10 11  2  0  0  0  0
M  END
> <Index>
8198

> <PropertyFieldDistance>
nan

$$$$
11402266
BBcorina  12272117083D 1   1.00000     0.00000 
CORINA 4.3.0 0026  30.10.2019
 12 13  0  0  0  0  0  0  0  0999 V2000
  -36.0191    3.9414  -44.5846 N   0  0  0  0  0  0  0  0  0  0  0  0
  -36.9723    4.0087  -43.4694 C   0  0  0  0  0  0  0  0  0  0  0  0
  -36.6793    5.2476  -42.6202 C   0  0  0  0  0  0  0  0  0  0  0  0
  -35.2462    5.1676  -42.0870 C   0  0  0  0  0  0  0  0  0  0  0  0
  -34.2770    5.0496  -43.2665 C   0  0  0  0  0  0  0  0  0  0  0  0
  -34.6396    3.8164  -44.0970 C   0  0  0  0  0  0  0  0  0  0  0  0
  -32.9079    4.9148  -42.7629 N   0  0  0  0  0  0  0  0  0  0  0  0
  -32.3136    3.7607  -42.3811 C   0  0  0  0  0  0  0  0  0  0  0  0
  -31.0616    4.0931  -41.9885 C   0  0  0  0  0  0  0  0  0  0  0  0
  -30.9527    5.4169  -42.1471 N   0  0  0  0  0  0  0  0  0  0  0  0
  -32.0617    5.8730  -42.6127 N   0  0  0  0  0  0  0  0  0  0  0  0
  -36.4110    2.6621  -45.6494 X   0  0  0  0  0  0  0  0  0  0  0  0
  1  2  1  0  0  0  0
  1  6  1  0  0  0  0
  1 12  1  0  0  0  0
  2  3  1  0  0  0  0
  3  4  1  0  0  0  0
  4  5  1  0  0  0  0
  5  6  1  0  0  0  0
  5  7  1  0  0  0  0
  7  8  1  0  0  0  0
  7 11  1  0  0  0  0
  8  9  2  0  0  0  0
  9 10  1  0  0  0  0
 10 11  2  0  0  0  0
M  END
> <Index>
8205

> <PropertyFieldDistance>
nan

$$$$
8334412
BBcorina  12272117083D 1   1.00000     0.00000 
CORINA 4.3.0 0026  30.10.2019
 11 11  0  0  0  0  0  0  0  0999 V2000
  -37.1133    1.9529  -45.5795 C   0  0  0  0  0  0  0  0  0  0  0  0
  -35.7037    2.2732  -45.0781 C   0  0  0  0  0  0  0  0  0  0  0  0
  -35.6991    3.5981  -44.4433 N   0  0  0  0  0  0  0  0  0  0  0  0
  -36.8443    3.7514  -43.5369 C   0  0  0  0  0  0  0  0  0  0  0  0
  -36.8892    5.1866  -43.0078 C   0  0  0  0  0  0  0  0  0  0  0  0
  -35.5842    5.4937  -42.2680 C   0  0  0  0  0  0  0  0  0  0  0  0
  -34.4044    5.2798  -43.2203 C   0  0  0  0  0  0  0  0  0  0  0  0
  -34.4315    3.8418  -43.7432 C   0  0  0  0  0  0  0  0  0  0  0  0
  -33.1794    5.5102  -42.5215 O   0  0  0  0  0  0  0  0  0  0  0  0
  -32.7720    6.9148  -42.4820 N   0  0  0  0  0  0  0  0  0  0  0  0
  -31.3012    7.1026  -41.6301 X   0  0  0  0  0  0  0  0  0  0  0  0
  1  2  1  0  0  0  0
  2  3  1  0  0  0  0
  3  4  1  0  0  0  0
  3  8  1  0  0  0  0
  4  5  1  0  0  0  0
  5  6  1  0  0  0  0
  6  7  1  0  0  0  0
  7  8  1  0  0  0  0
  7  9  1  0  0  0  0
  9 10  1  0  0  0  0
 10 11  1  0  0  0  0
M  END
> <Index>
8207

> <PropertyFieldDistance>
nan

$$$$
11972654
BBcorina  12272117083D 1   1.00000     0.00000 
CORINA 4.3.0 0026  30.10.2019
 12 13  0  0  0  0  0  0  0  0999 V2000
  -34.9060    6.4758  -45.0210 N   0  0  0  0  0  0  0  0  0  0  0  0
  -34.8866    5.0069  -45.0213 C   0  0  0  0  0  0  0  0  0  0  0  0
  -36.3224    4.4782  -45.0105 C   0  0  0  0  0  0  0  0  0  0  0  0
  -36.3016    2.9477  -45.0189 C   0  0  0  0  0  0  0  0  0  0  0  0
  -35.5510    2.4419  -43.7893 C   0  0  0  0  0  0  0  0  0  0  0  0
  -36.2808    2.8822  -42.5113 C   0  0  0  0  0  0  0  0  0  0  0  0
  -36.6861    1.5900  -41.7710 C   0  0  0  0  0  0  0  0  0  0  0  0
  -35.6884    0.5252  -42.2911 C   0  0  0  0  0  0  0  0  0  0  0  0
  -35.5328    0.9022  -43.7860 C   0  0  0  0  0  0  0  0  0  0  0  0
  -34.1208    2.9762  -43.7835 C   0  0  0  0  0  0  0  0  0  0  0  0
  -34.1476    4.5066  -43.7785 C   0  0  0  0  0  0  0  0  0  0  0  0
  -35.6041    7.0791  -43.5813 X   0  0  0  0  0  0  0  0  0  0  0  0
  1  2  1  0  0  0  0
  1 12  1  0  0  0  0
  2  3  1  0  0  0  0
  2 11  1  0  0  0  0
  3  4  1  0  0  0  0
  4  5  1  0  0  0  0
  5  6  1  0  0  0  0
  5  9  1  0  0  0  0
  5 10  1  0  0  0  0
  6  7  1  0  0  0  0
  7  8  1  0  0  0  0
  8  9  1  0  0  0  0
 10 11  1  0  0  0  0
M  END
> <Index>
8210

> <PropertyFieldDistance>
nan

$$$$
12056226
BBcorina  12272117083D 1   1.00000     0.00000 
CORINA 4.3.0 0026  30.10.2019
 11 11  0  0  0  0  0  0  0  0999 V2000
  -32.4672    6.3127  -42.1088 C   0  0  0  0  0  0  0  0  0  0  0  0
  -32.9629    5.6821  -43.4117 C   0  0  0  0  0  0  0  0  0  0  0  0
  -34.2558    4.9088  -43.1443 C   0  0  0  0  0  0  0  0  0  0  0  0
  -34.0162    3.8802  -42.0372 C   0  0  0  0  0  0  0  0  0  0  0  0
  -32.8459    2.9749  -42.4268 C   0  0  0  0  0  0  0  0  0  0  0  0
  -35.3534    5.8832  -42.7079 C   0  0  0  0  0  0  0  0  0  0  0  0
  -36.6587    5.1099  -42.5007 C   0  0  0  0  0  0  0  0  0  0  0  0
  -37.0290    4.3869  -43.7977 C   0  0  0  0  0  0  0  0  0  0  0  0
  -35.9479    3.4664  -44.1723 N   0  0  0  0  0  0  0  0  0  0  0  0
  -34.6959    4.1916  -44.4226 C   0  0  0  0  0  0  0  0  0  0  0  0
  -36.3899    2.5210  -45.5270 X   0  0  0  0  0  0  0  0  0  0  0  0
  1  2  1  0  0  0  0
  2  3  1  0  0  0  0
  3  4  1  0  0  0  0
  3  6  1  0  0  0  0
  3 10  1  0  0  0  0
  4  5  1  0  0  0  0
  6  7  1  0  0  0  0
  7  8  1  0  0  0  0
  8  9  1  0  0  0  0
  9 10  1  0  0  0  0
  9 11  1  0  0  0  0
M  END
> <Index>
8218

> <PropertyFieldDistance>
nan

$$$$
17567658
BBcorina  12272117083D 1   1.00000     0.00000 
CORINA 4.3.0 0026  30.10.2019
 10 11  0  0  0  0  0  0  0  0999 V2000
  -36.0444    2.5708  -44.9253 C   0  0  0  0  0  0  0  0  0  0  0  0
  -36.5665    3.1757  -43.6927 N   0  0  0  0  0  0  0  0  0  0  0  0
  -37.0756    4.5449  -43.9471 C   0  0  0  0  0  0  0  0  0  0  0  0
  -36.3646    4.9245  -42.6539 C   0  0  0  0  0  0  0  0  0  0  0  0
  -35.4659    3.7107  -42.8557 C   0  0  0  0  0  0  0  0  0  0  0  0
  -37.2273    4.9325  -41.3796 C   0  0  0  0  0  0  0  0  0  0  0  0
  -37.6418    6.4169  -41.2589 C   0  0  0  0  0  0  0  0  0  0  0  0
  -36.6780    7.2108  -42.0450 N   0  0  0  0  0  0  0  0  0  0  0  0
  -35.6722    6.2933  -42.6292 C   0  0  0  0  0  0  0  0  0  0  0  0
  -35.9293    8.4026  -41.0739 X   0  0  0  0  0  0  0  0  0  0  0  0
  1  2  1  0  0  0  0
  2  3  1  0  0  0  0
  2  5  1  0  0  0  0
  3  4  1  0  0  0  0
  4  5  1  0  0  0  0
  4  6  1  0  0  0  0
  4  9  1  0  0  0  0
  6  7  1  0  0  0  0
  7  8  1  0  0  0  0
  8  9  1  0  0  0  0
  8 10  1  0  0  0  0
M  END
> <Index>
8222

> <PropertyFieldDistance>
nan

$$$$
12305056
BBcorina  12272117083D 1   1.00000     0.00000 
CORINA 4.3.0 0026  30.10.2019
 10 10  0  0  0  0  0  0  0  0999 V2000
  -38.3969    4.0940  -44.0211 C   0  0  0  0  0  0  0  0  0  0  0  0
  -36.9723    4.0087  -43.4695 C   0  0  0  0  0  0  0  0  0  0  0  0
  -36.6793    5.2476  -42.6202 C   0  0  0  0  0  0  0  0  0  0  0  0
  -35.2462    5.1675  -42.0870 C   0  0  0  0  0  0  0  0  0  0  0  0
  -34.9541    6.3240  -41.3558 F   0  0  0  0  0  0  0  0  0  0  0  0
  -35.1169    4.0465  -41.2601 F   0  0  0  0  0  0  0  0  0  0  0  0
  -34.2770    5.0496  -43.2665 C   0  0  0  0  0  0  0  0  0  0  0  0
  -34.6396    3.8164  -44.0970 C   0  0  0  0  0  0  0  0  0  0  0  0
  -36.0191    3.9414  -44.5845 N   0  0  0  0  0  0  0  0  0  0  0  0
  -36.4111    2.6622  -45.6495 X   0  0  0  0  0  0  0  0  0  0  0  0
  1  2  1  0  0  0  0
  2  3  1  0  0  0  0
  2  9  1  0  0  0  0
  3  4  1  0  0  0  0
  4  5  1  0  0  0  0
  4  6  1  0  0  0  0
  4  7  1  0  0  0  0
  7  8  1  0  0  0  0
  8  9  1  0  0  0  0
  9 10  1  0  0  0  0
M  END
> <Index>
8229

> <PropertyFieldDistance>
nan

$$$$
17833122
BBcorina  12272117083D 1   1.00000     0.00000 
CORINA 4.3.0 0026  30.10.2019
  8  8  0  0  0  0  0  0  0  0999 V2000
  -36.0204    3.6367  -44.4097 N   0  0  0  0  0  0  0  0  0  0  0  0
  -37.0558    4.4945  -43.7930 C   0  0  0  0  0  0  0  0  0  0  0  0
  -36.5875    4.9106  -42.4208 C   0  0  0  0  0  0  0  0  0  0  0  0
  -35.8829    6.1664  -42.4412 O   0  0  0  0  0  0  0  0  0  0  0  0
  -34.9780    6.3577  -43.5451 C   0  0  0  0  0  0  0  0  0  0  0  0
  -34.1966    5.1085  -43.8680 C   0  0  0  0  0  0  0  0  0  0  0  0
  -34.9268    4.3440  -44.9026 N   0  0  0  0  0  0  0  0  0  0  0  0
  -36.6963    2.6331  -45.6181 X   0  0  0  0  0  0  0  0  0  0  0  0
  1  2  1  0  0  0  0
  1  7  1  0  0  0  0
  1  8  1  0  0  0  0
  2  3  1  0  0  0  0
  3  4  1  0  0  0  0
  4  5  1  0  0  0  0
  5  6  1  0  0  0  0
  6  7  1  0  0  0  0
M  END
> <Index>
8246

> <PropertyFieldDistance>
nan

$$$$
7107536
BBcorina  12272117083D 1   1.00000     0.00000 
CORINA 4.3.0 0026  30.10.2019
 11 11  0  0  0  0  0  0  0  0999 V2000
  -36.1127    6.6014  -39.8211 C   0  0  0  0  0  0  0  0  0  0  0  0
  -34.8675    6.6668  -41.1386 S   0  0  0  0  0  0  0  0  0  0  0  0
  -33.5811    6.5197  -40.5535 O   0  0  0  0  0  0  0  0  0  0  0  0
  -35.1326    7.7985  -41.9562 O   0  0  0  0  0  0  0  0  0  0  0  0
  -35.2462    5.1675  -42.0868 C   0  0  0  0  0  0  0  0  0  0  0  0
  -36.6793    5.2476  -42.6203 C   0  0  0  0  0  0  0  0  0  0  0  0
  -36.9723    4.0086  -43.4694 C   0  0  0  0  0  0  0  0  0  0  0  0
  -36.0191    3.9414  -44.5845 N   0  0  0  0  0  0  0  0  0  0  0  0
  -34.6396    3.8164  -44.0971 C   0  0  0  0  0  0  0  0  0  0  0  0
  -34.2769    5.0496  -43.2664 C   0  0  0  0  0  0  0  0  0  0  0  0
  -36.4111    2.6624  -45.6495 X   0  0  0  0  0  0  0  0  0  0  0  0
  1  2  1  0  0  0  0
  2  3  2  0  0  0  0
  2  4  2  0  0  0  0
  2  5  1  0  0  0  0
  5  6  1  0  0  0  0
  5 10  1  0  0  0  0
  6  7  1  0  0  0  0
  7  8  1  0  0  0  0
  8  9  1  0  0  0  0
  8 11  1  0  0  0  0
  9 10  1  0  0  0  0
M  END
> <Index>
8249

> <PropertyFieldDistance>
nan

$$$$
9434480
BBcorina  12272117083D 1   1.00000     0.00000 
CORINA 4.3.0 0026  30.10.2019
 14 15  0  0  0  0  0  0  0  0999 V2000
  -37.5876    5.7390  -41.5830 C   0  0  0  0  0  0  0  0  0  0  0  0
  -36.6611    5.4094  -42.7551 C   0  0  0  0  0  0  0  0  0  0  0  0
  -36.9565    3.9941  -43.2572 C   0  0  0  0  0  0  0  0  0  0  0  0
  -36.0390    3.6659  -44.3572 N   0  0  0  0  0  0  0  0  0  0  0  0
  -34.6402    3.7434  -43.9134 C   0  0  0  0  0  0  0  0  0  0  0  0
  -34.3449    5.1588  -43.4113 C   0  0  0  0  0  0  0  0  0  0  0  0
  -35.2624    5.4870  -42.3113 N   0  0  0  0  0  0  0  0  0  0  0  0
  -36.3409    2.3418  -44.9174 C   0  0  0  0  0  0  0  0  0  0  0  0
  -36.0111    1.2608  -43.8835 C   0  0  0  0  0  0  0  0  0  0  0  0
  -36.4022   -0.1084  -44.4458 C   0  0  0  0  0  0  0  0  0  0  0  0
  -37.7919   -0.1056  -44.7792 O   0  0  0  0  0  0  0  0  0  0  0  0
  -38.1508    0.8532  -45.7761 C   0  0  0  0  0  0  0  0  0  0  0  0
  -37.8300    2.2609  -45.2672 C   0  0  0  0  0  0  0  0  0  0  0  0
  -34.9110    7.0283  -41.6594 X   0  0  0  0  0  0  0  0  0  0  0  0
  1  2  1  0  0  0  0
  2  3  1  0  0  0  0
  2  7  1  0  0  0  0
  3  4  1  0  0  0  0
  4  5  1  0  0  0  0
  4  8  1  0  0  0  0
  5  6  1  0  0  0  0
  6  7  1  0  0  0  0
  7 14  1  0  0  0  0
  8  9  1  0  0  0  0
  8 13  1  0  0  0  0
  9 10  1  0  0  0  0
 10 11  1  0  0  0  0
 11 12  1  0  0  0  0
 12 13  1  0  0  0  0
M  END
> <Index>
8259

> <PropertyFieldDistance>
nan

$$$$
10908324
BBcorina  12272117083D 1   1.00000     0.00000 
CORINA 4.3.0 0026  30.10.2019
 10 10  0  0  0  0  0  0  0  0999 V2000
  -34.6769    5.5841  -45.3689 C   0  0  0  0  0  0  0  0  0  0  0  0
  -35.1487    4.8159  -44.2602 O   0  0  0  0  0  0  0  0  0  0  0  0
  -36.1800    3.8851  -44.5948 C   0  0  0  0  0  0  0  0  0  0  0  0
  -37.0965    3.6833  -43.3865 C   0  0  0  0  0  0  0  0  0  0  0  0
  -36.2801    3.1395  -42.2123 C   0  0  0  0  0  0  0  0  0  0  0  0
  -35.6514    1.8010  -42.6047 C   0  0  0  0  0  0  0  0  0  0  0  0
  -34.7349    2.0029  -43.8131 C   0  0  0  0  0  0  0  0  0  0  0  0
  -35.5513    2.5466  -44.9873 C   0  0  0  0  0  0  0  0  0  0  0  0
  -34.8675    1.2789  -41.4774 N   0  0  0  0  0  0  0  0  0  0  0  0
  -34.8443   -0.4309  -41.4868 X   0  0  0  0  0  0  0  0  0  0  0  0
  1  2  1  0  0  0  0
  2  3  1  0  0  0  0
  3  4  1  0  0  0  0
  3  8  1  0  0  0  0
  4  5  1  0  0  0  0
  5  6  1  0  0  0  0
  6  7  1  0  0  0  0
  6  9  1  0  0  0  0
  7  8  1  0  0  0  0
  9 10  1  0  0  0  0
M  END
> <Index>
8272

> <PropertyFieldDistance>
nan

$$$$
5582856
BBcorina  12272117083D 1   1.00000     0.00000 
CORINA 4.3.0 0026  30.10.2019
 11 11  0  0  0  0  0  0  0  0999 V2000
  -38.3028    3.5226  -43.2754 C   0  0  0  0  0  0  0  0  0  0  0  0
  -37.0433    4.2897  -43.6827 C   0  0  0  0  0  0  0  0  0  0  0  0
  -36.6554    5.2624  -42.5667 C   0  0  0  0  0  0  0  0  0  0  0  0
  -35.3833    6.0133  -42.9700 C   0  0  0  0  0  0  0  0  0  0  0  0
  -34.2691    5.0007  -43.2489 C   0  0  0  0  0  0  0  0  0  0  0  0
  -34.7262    4.0357  -44.3451 C   0  0  0  0  0  0  0  0  0  0  0  0
  -35.9453    3.3417  -43.9110 N   0  0  0  0  0  0  0  0  0  0  0  0
  -36.3354    2.3075  -44.8786 C   0  0  0  0  0  0  0  0  0  0  0  0
  -34.9741    6.9073  -41.8786 N   0  0  0  0  0  0  0  0  0  0  0  0
  -33.8247    7.7313  -42.2759 C   0  0  0  0  0  0  0  0  0  0  0  0
  -36.2799    7.8843  -41.3644 X   0  0  0  0  0  0  0  0  0  0  0  0
  1  2  1  0  0  0  0
  2  3  1  0  0  0  0
  2  7  1  0  0  0  0
  3  4  1  0  0  0  0
  4  5  1  0  0  0  0
  4  9  1  0  0  0  0
  5  6  1  0  0  0  0
  6  7  1  0  0  0  0
  7  8  1  0  0  0  0
  9 10  1  0  0  0  0
  9 11  1  0  0  0  0
M  END
> <Index>
8278

> <PropertyFieldDistance>
nan

$$$$
16720216
BBcorina  12272117083D 1   1.00000     0.00000 
CORINA 4.3.0 0026  30.10.2019
  9  9  0  0  0  0  0  0  0  0999 V2000
  -31.8210    4.6847  -40.7376 O   0  0  0  0  0  0  0  0  0  0  0  0
  -32.5929    4.8716  -41.9256 C   0  0  0  0  0  0  0  0  0  0  0  0
  -34.0823    4.8033  -41.5822 C   0  0  0  0  0  0  0  0  0  0  0  0
  -34.9087    5.0034  -42.8542 C   0  0  0  0  0  0  0  0  0  0  0  0
  -36.4203    5.0032  -42.5302 C   0  0  0  0  0  0  0  0  0  0  0  0
  -37.0792    4.2273  -43.6856 C   0  0  0  0  0  0  0  0  0  0  0  0
  -35.9998    3.8418  -44.6205 N   0  0  0  0  0  0  0  0  0  0  0  0
  -34.7584    3.7908  -43.8067 C   0  0  0  0  0  0  0  0  0  0  0  0
  -36.3244    2.3246  -45.3392 X   0  0  0  0  0  0  0  0  0  0  0  0
  1  2  1  0  0  0  0
  2  3  1  0  0  0  0
  3  4  1  0  0  0  0
  4  5  1  0  0  0  0
  4  8  1  0  0  0  0
  5  6  1  0  0  0  0
  6  7  1  0  0  0  0
  7  8  1  0  0  0  0
  7  9  1  0  0  0  0
M  END
> <Index>
8283

> <PropertyFieldDistance>
nan

$$$$
9433374
BBcorina  12272117083D 1   1.00000     0.00000 
CORINA 4.3.0 0026  30.10.2019
  9  9  0  0  0  0  0  0  0  0999 V2000
  -38.3655    3.7175  -43.6315 C   0  0  0  0  0  0  0  0  0  0  0  0
  -37.0530    4.4782  -43.8312 C   0  0  0  0  0  0  0  0  0  0  0  0
  -36.4385    4.8666  -42.4634 C   0  0  0  0  0  0  0  0  0  0  0  0
  -37.0158    6.1909  -41.9593 C   0  0  0  0  0  0  0  0  0  0  0  0
  -36.5168    6.4595  -40.6476 O   0  0  0  0  0  0  0  0  0  0  0  0
  -34.9374    5.0165  -42.8253 C   0  0  0  0  0  0  0  0  0  0  0  0
  -34.7234    3.9144  -43.8840 C   0  0  0  0  0  0  0  0  0  0  0  0
  -36.0427    3.6040  -44.4644 N   0  0  0  0  0  0  0  0  0  0  0  0
  -36.0299    3.8118  -46.1617 X   0  0  0  0  0  0  0  0  0  0  0  0
  1  2  1  0  0  0  0
  2  3  1  0  0  0  0
  2  8  1  0  0  0  0
  3  4  1  0  0  0  0
  3  6  1  0  0  0  0
  4  5  1  0  0  0  0
  6  7  1  0  0  0  0
  7  8  1  0  0  0  0
  8  9  1  0  0  0  0
M  END
> <Index>
8294

> <PropertyFieldDistance>
nan

$$$$
15427236
BBcorina  12272117083D 1   1.00000     0.00000 
CORINA 4.3.0 0026  30.10.2019
  9  9  0  0  0  0  0  0  0  0999 V2000
  -32.1069    4.8078  -40.3016 C   0  0  0  0  0  0  0  0  0  0  0  0
  -33.1436    3.9431  -41.0218 C   0  0  0  0  0  0  0  0  0  0  0  0
  -34.1124    4.7851  -41.6500 O   0  0  0  0  0  0  0  0  0  0  0  0
  -35.1316    4.0731  -42.3544 C   0  0  0  0  0  0  0  0  0  0  0  0
  -36.4196    4.9319  -42.4898 C   0  0  0  0  0  0  0  0  0  0  0  0
  -37.0796    4.3646  -43.7642 C   0  0  0  0  0  0  0  0  0  0  0  0
  -36.0217    3.7054  -44.5516 N   0  0  0  0  0  0  0  0  0  0  0  0
  -34.7367    3.8612  -43.8373 C   0  0  0  0  0  0  0  0  0  0  0  0
  -35.9306    4.3633  -46.1274 X   0  0  0  0  0  0  0  0  0  0  0  0
  1  2  1  0  0  0  0
  2  3  1  0  0  0  0
  3  4  1  0  0  0  0
  4  5  1  0  0  0  0
  4  8  1  0  0  0  0
  5  6  1  0  0  0  0
  6  7  1  0  0  0  0
  7  8  1  0  0  0  0
  7  9  1  0  0  0  0
M  END
> <Index>
8302

> <PropertyFieldDistance>
nan

$$$$
11764922
BBcorina  12272117083D 1   1.00000     0.00000 
CORINA 4.3.0 0026  30.10.2019
 12 13  0  0  0  0  0  0  0  0999 V2000
  -36.3013    6.8998  -41.6690 N   0  0  0  0  0  0  0  0  0  0  0  0
  -36.7908    6.8674  -43.0537 C   0  0  0  0  0  0  0  0  0  0  0  0
  -38.1493    6.1662  -43.0962 C   0  0  0  0  0  0  0  0  0  0  0  0
  -37.9714    4.7217  -42.6172 C   0  0  0  0  0  0  0  0  0  0  0  0
  -36.9592    4.0225  -43.5241 C   0  0  0  0  0  0  0  0  0  0  0  0
  -35.6686    4.7219  -43.4756 N   0  0  0  0  0  0  0  0  0  0  0  0
  -34.6833    3.9748  -44.2735 C   0  0  0  0  0  0  0  0  0  0  0  0
  -33.3048    4.6227  -44.1473 C   0  0  0  0  0  0  0  0  0  0  0  0
  -33.3887    6.0663  -44.6536 C   0  0  0  0  0  0  0  0  0  0  0  0
  -34.4331    6.8201  -43.8233 C   0  0  0  0  0  0  0  0  0  0  0  0
  -35.7874    6.1114  -43.9309 C   0  0  0  0  0  0  0  0  0  0  0  0
  -35.7351    8.4596  -41.2555 X   0  0  0  0  0  0  0  0  0  0  0  0
  1  2  1  0  0  0  0
  1 12  1  0  0  0  0
  2  3  1  0  0  0  0
  2 11  1  0  0  0  0
  3  4  1  0  0  0  0
  4  5  1  0  0  0  0
  5  6  1  0  0  0  0
  6  7  1  0  0  0  0
  6 11  1  0  0  0  0
  7  8  1  0  0  0  0
  8  9  1  0  0  0  0
  9 10  1  0  0  0  0
 10 11  1  0  0  0  0
M  END
> <Index>
8308

> <PropertyFieldDistance>
nan

$$$$
11619540
BBcorina  12272117083D 1   1.00000     0.00000 
CORINA 4.3.0 0026  30.10.2019
 13 14  0  0  0  0  0  0  0  0999 V2000
  -36.3352    2.3074  -44.8783 C   0  0  0  0  0  0  0  0  0  0  0  0
  -35.9453    3.3420  -43.9112 N   0  0  0  0  0  0  0  0  0  0  0  0
  -37.0436    4.2897  -43.6828 C   0  0  0  0  0  0  0  0  0  0  0  0
  -36.6558    5.2624  -42.5665 C   0  0  0  0  0  0  0  0  0  0  0  0
  -35.3833    6.0114  -42.9688 C   0  0  0  0  0  0  0  0  0  0  0  0
  -34.2688    5.0005  -43.2489 C   0  0  0  0  0  0  0  0  0  0  0  0
  -34.7260    4.0356  -44.3454 C   0  0  0  0  0  0  0  0  0  0  0  0
  -34.9555    6.9424  -41.8323 C   0  0  0  0  0  0  0  0  0  0  0  0
  -33.7772    7.7136  -42.2550 N   0  0  0  0  0  0  0  0  0  0  0  0
  -34.0726    8.4944  -43.4652 C   0  0  0  0  0  0  0  0  0  0  0  0
  -34.5077    7.5458  -44.5853 C   0  0  0  0  0  0  0  0  0  0  0  0
  -35.6348    6.7827  -44.1455 O   0  0  0  0  0  0  0  0  0  0  0  0
  -33.2223    8.7254  -40.9931 X   0  0  0  0  0  0  0  0  0  0  0  0
  1  2  1  0  0  0  0
  2  3  1  0  0  0  0
  2  7  1  0  0  0  0
  3  4  1  0  0  0  0
  4  5  1  0  0  0  0
  5  6  1  0  0  0  0
  5  8  1  0  0  0  0
  5 12  1  0  0  0  0
  6  7  1  0  0  0  0
  8  9  1  0  0  0  0
  9 10  1  0  0  0  0
  9 13  1  0  0  0  0
 10 11  1  0  0  0  0
 11 12  1  0  0  0  0
M  END
> <Index>
8310

> <PropertyFieldDistance>
nan

$$$$
9780440
BBcorina  12272117083D 1   1.00000     0.00000 
CORINA 4.3.0 0026  30.10.2019
 14 15  0  0  0  0  0  0  0  0999 V2000
  -35.9809    1.4014  -47.8524 N   0  0  0  0  0  0  0  0  0  0  0  0
  -35.6177    0.0921  -47.2663 C   0  0  0  0  0  0  0  0  0  0  0  0
  -35.7280    0.0587  -45.7314 C   0  0  0  0  0  0  0  0  0  0  0  0
  -35.1887    1.3027  -45.0774 C   0  0  0  0  0  0  0  0  0  0  0  0
  -36.3427    2.3152  -44.9018 C   0  0  0  0  0  0  0  0  0  0  0  0
  -36.6681    2.9842  -46.1567 C   0  0  0  0  0  0  0  0  0  0  0  0
  -37.1430    2.0044  -47.2455 C   0  0  0  0  0  0  0  0  0  0  0  0
  -35.9485    3.3239  -43.9093 N   0  0  0  0  0  0  0  0  0  0  0  0
  -37.0377    4.2818  -43.6704 C   0  0  0  0  0  0  0  0  0  0  0  0
  -36.6072    5.2766  -42.5891 C   0  0  0  0  0  0  0  0  0  0  0  0
  -35.3980    5.9223  -42.9967 O   0  0  0  0  0  0  0  0  0  0  0  0
  -34.3157    5.0188  -43.2373 C   0  0  0  0  0  0  0  0  0  0  0  0
  -34.7230    4.0214  -44.3252 C   0  0  0  0  0  0  0  0  0  0  0  0
  -36.1659    1.2854  -49.5484 X   0  0  0  0  0  0  0  0  0  0  0  0
  1  2  1  0  0  0  0
  1  7  1  0  0  0  0
  1 14  1  0  0  0  0
  2  3  1  0  0  0  0
  3  4  1  0  0  0  0
  4  5  1  0  0  0  0
  5  6  1  0  0  0  0
  5  8  1  0  0  0  0
  6  7  1  0  0  0  0
  8  9  1  0  0  0  0
  8 13  1  0  0  0  0
  9 10  1  0  0  0  0
 10 11  1  0  0  0  0
 11 12  1  0  0  0  0
 12 13  1  0  0  0  0
M  END
> <Index>
8312

> <PropertyFieldDistance>
nan

$$$$
14324580
BBcorina  12272117083D 1   1.00000     0.00000 
CORINA 4.3.0 0026  30.10.2019
  8  8  0  0  0  0  0  0  0  0999 V2000
  -34.0124    5.2367  -42.0327 N   0  0  0  0  0  0  0  0  0  0  0  0
  -35.0503    4.2801  -42.4396 C   0  0  0  0  0  0  0  0  0  0  0  0
  -36.4294    4.9757  -42.5107 C   0  0  0  0  0  0  0  0  0  0  0  0
  -37.0736    4.2745  -43.7271 C   0  0  0  0  0  0  0  0  0  0  0  0
  -35.9513    3.8125  -44.5523 N   0  0  0  0  0  0  0  0  0  0  0  0
  -34.8035    3.8004  -43.8530 C   0  0  0  0  0  0  0  0  0  0  0  0
  -33.7267    3.4546  -44.2911 O   0  0  0  0  0  0  0  0  0  0  0  0
  -33.9744    6.5842  -43.0849 X   0  0  0  0  0  0  0  0  0  0  0  0
  1  2  1  0  0  0  0
  1  8  1  0  0  0  0
  2  3  1  0  0  0  0
  2  6  1  0  0  0  0
  3  4  1  0  0  0  0
  4  5  1  0  0  0  0
  5  6  1  0  0  0  0
  6  7  2  0  0  0  0
M  END
> <Index>
8314

> <PropertyFieldDistance>
nan

$$$$
8166332
BBcorina  12272117083D 1   1.00000     0.00000 
CORINA 4.3.0 0026  30.10.2019
 12 12  0  0  0  0  0  0  0  0999 V2000
  -33.7375    7.6205  -39.6271 C   0  0  0  0  0  0  0  0  0  0  0  0
  -33.9876    6.3837  -40.3456 O   0  0  0  0  0  0  0  0  0  0  0  0
  -34.9316    6.4133  -41.2993 C   0  0  0  0  0  0  0  0  0  0  0  0
  -35.5293    7.4385  -41.5264 O   0  0  0  0  0  0  0  0  0  0  0  0
  -35.2462    5.1676  -42.0870 C   0  0  0  0  0  0  0  0  0  0  0  0
  -35.1138    4.0216  -41.2436 O   0  0  0  0  0  0  0  0  0  0  0  0
  -36.6793    5.2476  -42.6202 C   0  0  0  0  0  0  0  0  0  0  0  0
  -36.9723    4.0086  -43.4694 C   0  0  0  0  0  0  0  0  0  0  0  0
  -36.0191    3.9414  -44.5845 N   0  0  0  0  0  0  0  0  0  0  0  0
  -34.6396    3.8164  -44.0970 C   0  0  0  0  0  0  0  0  0  0  0  0
  -34.2769    5.0496  -43.2665 C   0  0  0  0  0  0  0  0  0  0  0  0
  -36.4111    2.6621  -45.6494 X   0  0  0  0  0  0  0  0  0  0  0  0
  1  2  1  0  0  0  0
  2  3  1  0  0  0  0
  3  4  2  0  0  0  0
  3  5  1  0  0  0  0
  5  6  1  0  0  0  0
  5  7  1  0  0  0  0
  5 11  1  0  0  0  0
  7  8  1  0  0  0  0
  8  9  1  0  0  0  0
  9 10  1  0  0  0  0
  9 12  1  0  0  0  0
 10 11  1  0  0  0  0
M  END
> <Index>
8315

> <PropertyFieldDistance>
nan

$$$$
7346632
BBcorina  12272117083D 1   1.00000     0.00000 
CORINA 4.3.0 0026  30.10.2019
 10 10  0  0  0  0  0  0  0  0999 V2000
  -34.7848    1.6025  -46.1934 F   0  0  0  0  0  0  0  0  0  0  0  0
  -35.4396    2.0537  -45.0424 C   0  0  0  0  0  0  0  0  0  0  0  0
  -36.7521    1.5694  -45.0325 F   0  0  0  0  0  0  0  0  0  0  0  0
  -34.6996    1.5468  -43.8029 C   0  0  0  0  0  0  0  0  0  0  0  0
  -35.4157    2.0402  -42.5441 C   0  0  0  0  0  0  0  0  0  0  0  0
  -35.4365    3.5701  -42.5357 C   0  0  0  0  0  0  0  0  0  0  0  0
  -36.1765    4.0769  -43.7752 C   0  0  0  0  0  0  0  0  0  0  0  0
  -35.4603    3.5835  -45.0340 C   0  0  0  0  0  0  0  0  0  0  0  0
  -36.1964    5.5457  -43.7671 N   0  0  0  0  0  0  0  0  0  0  0  0
  -37.5794    6.1354  -42.9525 X   0  0  0  0  0  0  0  0  0  0  0  0
  1  2  1  0  0  0  0
  2  3  1  0  0  0  0
  2  4  1  0  0  0  0
  2  8  1  0  0  0  0
  4  5  1  0  0  0  0
  5  6  1  0  0  0  0
  6  7  1  0  0  0  0
  7  8  1  0  0  0  0
  7  9  1  0  0  0  0
  9 10  1  0  0  0  0
M  END
> <Index>
8320

> <PropertyFieldDistance>
nan

$$$$
15730100
BBcorina  12272117083D 1   1.00000     0.00000 
CORINA 4.3.0 0026  30.10.2019
 10 10  0  0  0  0  0  0  0  0999 V2000
  -38.2982    7.7139  -40.4384 C   0  0  0  0  0  0  0  0  0  0  0  0
  -37.3539    6.7382  -40.8835 O   0  0  0  0  0  0  0  0  0  0  0  0
  -37.6840    6.1401  -42.1386 C   0  0  0  0  0  0  0  0  0  0  0  0
  -36.6101    5.1171  -42.5144 C   0  0  0  0  0  0  0  0  0  0  0  0
  -37.0250    4.3871  -43.7945 C   0  0  0  0  0  0  0  0  0  0  0  0
  -35.9556    3.4605  -44.1936 N   0  0  0  0  0  0  0  0  0  0  0  0
  -34.6940    4.1834  -44.4108 C   0  0  0  0  0  0  0  0  0  0  0  0
  -34.3026    4.9154  -43.1244 C   0  0  0  0  0  0  0  0  0  0  0  0
  -35.3668    5.7882  -42.7358 O   0  0  0  0  0  0  0  0  0  0  0  0
  -36.4018    2.5727  -45.5854 X   0  0  0  0  0  0  0  0  0  0  0  0
  1  2  1  0  0  0  0
  2  3  1  0  0  0  0
  3  4  1  0  0  0  0
  4  5  1  0  0  0  0
  4  9  1  0  0  0  0
  5  6  1  0  0  0  0
  6  7  1  0  0  0  0
  6 10  1  0  0  0  0
  7  8  1  0  0  0  0
  8  9  1  0  0  0  0
M  END
> <Index>
8329

> <PropertyFieldDistance>
nan

$$$$
9226820
BBcorina  12272117083D 1   1.00000     0.00000 
CORINA 4.3.0 0026  30.10.2019
 15 16  0  0  0  0  0  0  0  0999 V2000
  -37.5478    5.2032  -41.3541 C   0  0  0  0  0  0  0  0  0  0  0  0
  -36.5939    5.2068  -42.5505 C   0  0  0  0  0  0  0  0  0  0  0  0
  -36.9778    4.0806  -43.5130 C   0  0  0  0  0  0  0  0  0  0  0  0
  -36.0363    4.0619  -44.6413 N   0  0  0  0  0  0  0  0  0  0  0  0
  -34.6596    3.8532  -44.1714 C   0  0  0  0  0  0  0  0  0  0  0  0
  -34.2758    4.9795  -43.2087 C   0  0  0  0  0  0  0  0  0  0  0  0
  -35.2173    4.9982  -42.0804 N   0  0  0  0  0  0  0  0  0  0  0  0
  -34.8554    5.9697  -41.1420 C   0  0  0  0  0  0  0  0  0  0  0  0
  -34.7217    5.6280  -39.8034 C   0  0  0  0  0  0  0  0  0  0  0  0
  -34.3636    6.5902  -38.8783 C   0  0  0  0  0  0  0  0  0  0  0  0
  -34.1382    7.8923  -39.2837 C   0  0  0  0  0  0  0  0  0  0  0  0
  -34.2702    8.2378  -40.6167 C   0  0  0  0  0  0  0  0  0  0  0  0
  -34.6230    7.2797  -41.5486 C   0  0  0  0  0  0  0  0  0  0  0  0
  -34.7464    7.6158  -42.8513 F   0  0  0  0  0  0  0  0  0  0  0  0
  -36.4788    2.8739  -45.7889 X   0  0  0  0  0  0  0  0  0  0  0  0
  1  2  1  0  0  0  0
  2  3  1  0  0  0  0
  2  7  1  0  0  0  0
  3  4  1  0  0  0  0
  4  5  1  0  0  0  0
  4 15  1  0  0  0  0
  5  6  1  0  0  0  0
  6  7  1  0  0  0  0
  7  8  1  0  0  0  0
  8  9  2  0  0  0  0
  8 13  1  0  0  0  0
  9 10  1  0  0  0  0
 10 11  2  0  0  0  0
 11 12  1  0  0  0  0
 12 13  2  0  0  0  0
 13 14  1  0  0  0  0
M  END
> <Index>
8332

> <PropertyFieldDistance>
nan

$$$$
6008902
BBcorina  12272117083D 1   1.00000     0.00000 
CORINA 4.3.0 0026  30.10.2019
 12 12  0  0  0  0  0  0  0  0999 V2000
  -41.8668    4.6451  -42.7918 C   0  0  0  0  0  0  0  0  0  0  0  0
  -40.7129    3.7424  -42.9006 N   0  0  0  0  0  0  0  0  0  0  0  0
  -39.4797    4.4944  -43.1687 C   0  0  0  0  0  0  0  0  0  0  0  0
  -38.3028    3.5227  -43.2751 C   0  0  0  0  0  0  0  0  0  0  0  0
  -37.0433    4.2897  -43.6828 C   0  0  0  0  0  0  0  0  0  0  0  0
  -36.6554    5.2624  -42.5667 C   0  0  0  0  0  0  0  0  0  0  0  0
  -35.3833    6.0133  -42.9700 C   0  0  0  0  0  0  0  0  0  0  0  0
  -34.2692    5.0007  -43.2489 C   0  0  0  0  0  0  0  0  0  0  0  0
  -34.7262    4.0357  -44.3451 C   0  0  0  0  0  0  0  0  0  0  0  0
  -35.9453    3.3416  -43.9110 N   0  0  0  0  0  0  0  0  0  0  0  0
  -36.3354    2.3075  -44.8786 C   0  0  0  0  0  0  0  0  0  0  0  0
  -40.5516    2.7819  -41.4951 X   0  0  0  0  0  0  0  0  0  0  0  0
  1  2  1  0  0  0  0
  2  3  1  0  0  0  0
  2 12  1  0  0  0  0
  3  4  1  0  0  0  0
  4  5  1  0  0  0  0
  5  6  1  0  0  0  0
  5 10  1  0  0  0  0
  6  7  1  0  0  0  0
  7  8  1  0  0  0  0
  8  9  1  0  0  0  0
  9 10  1  0  0  0  0
 10 11  1  0  0  0  0
M  END
> <Index>
8382

> <PropertyFieldDistance>
nan

$$$$
6103842
BBcorina  12272117083D 1   1.00000     0.00000 
CORINA 4.3.0 0026  30.10.2019
 15 16  0  0  0  0  0  0  0  0999 V2000
  -36.4311    2.6232  -45.2663 C   0  0  0  0  0  0  0  0  0  0  0  0
  -35.9889    3.2949  -44.0369 N   0  0  0  0  0  0  0  0  0  0  0  0
  -37.0103    4.2348  -43.5538 C   0  0  0  0  0  0  0  0  0  0  0  0
  -36.5471    4.8531  -42.2326 C   0  0  0  0  0  0  0  0  0  0  0  0
  -35.2619    5.5360  -42.4388 N   0  0  0  0  0  0  0  0  0  0  0  0
  -34.2405    4.5962  -42.9218 C   0  0  0  0  0  0  0  0  0  0  0  0
  -34.7042    3.9779  -44.2430 C   0  0  0  0  0  0  0  0  0  0  0  0
  -34.8197    6.2078  -41.2095 C   0  0  0  0  0  0  0  0  0  0  0  0
  -33.6513    7.1607  -41.5476 C   0  0  0  0  0  0  0  0  0  0  0  0
  -33.4902    8.1493  -40.4243 C   0  0  0  0  0  0  0  0  0  0  0  0
  -32.4775    7.6872  -39.3559 C   0  0  0  0  0  0  0  0  0  0  0  0
  -32.6204    6.1894  -39.0245 C   0  0  0  0  0  0  0  0  0  0  0  0
  -34.0026    5.7842  -38.9414 N   0  0  0  0  0  0  0  0  0  0  0  0
  -34.4230    5.2001  -40.2323 C   0  0  0  0  0  0  0  0  0  0  0  0
  -34.2404    4.6761  -37.6609 X   0  0  0  0  0  0  0  0  0  0  0  0
  1  2  1  0  0  0  0
  2  3  1  0  0  0  0
  2  7  1  0  0  0  0
  3  4  1  0  0  0  0
  4  5  1  0  0  0  0
  5  6  1  0  0  0  0
  5  8  1  0  0  0  0
  6  7  1  0  0  0  0
  8  9  1  0  0  0  0
  8 14  1  0  0  0  0
  9 10  1  0  0  0  0
 10 11  1  0  0  0  0
 11 12  1  0  0  0  0
 12 13  1  0  0  0  0
 13 14  1  0  0  0  0
 13 15  1  0  0  0  0
M  END
> <Index>
8386

> <PropertyFieldDistance>
nan

$$$$
5731786
BBcorina  12272117083D 1   1.00000     0.00000 
CORINA 4.3.0 0026  30.10.2019
 10 10  0  0  0  0  0  0  0  0999 V2000
  -35.3514    6.5838  -44.7262 C   0  0  0  0  0  0  0  0  0  0  0  0
  -34.8647    6.2995  -43.3038 C   0  0  0  0  0  0  0  0  0  0  0  0
  -33.8979    7.4078  -42.8820 C   0  0  0  0  0  0  0  0  0  0  0  0
  -36.0771    6.3069  -42.3516 C   0  0  0  0  0  0  0  0  0  0  0  0
  -36.8665    4.9882  -42.4146 C   0  0  0  0  0  0  0  0  0  0  0  0
  -36.9975    4.4863  -43.8308 C   0  0  0  0  0  0  0  0  0  0  0  0
  -35.9111    3.5169  -44.0746 N   0  0  0  0  0  0  0  0  0  0  0  0
  -34.6839    4.0881  -44.4231 C   0  0  0  0  0  0  0  0  0  0  0  0
  -34.1284    4.9841  -43.2946 C   0  0  0  0  0  0  0  0  0  0  0  0
  -36.3862    2.3393  -45.2200 X   0  0  0  0  0  0  0  0  0  0  0  0
  1  2  1  0  0  0  0
  2  3  1  0  0  0  0
  2  4  1  0  0  0  0
  2  9  1  0  0  0  0
  4  5  1  0  0  0  0
  5  6  1  0  0  0  0
  6  7  1  0  0  0  0
  7  8  1  0  0  0  0
  7 10  1  0  0  0  0
  8  9  1  0  0  0  0
M  END
> <Index>
8388

> <PropertyFieldDistance>
nan

$$$$
17551672
BBcorina  12272117083D 1   1.00000     0.00000 
CORINA 4.3.0 0026  30.10.2019
 12 12  0  0  0  0  0  0  0  0999 V2000
  -31.9347    8.6948  -43.1527 C   0  0  0  0  0  0  0  0  0  0  0  0
  -32.8050    7.6262  -43.6100 O   0  0  0  0  0  0  0  0  0  0  0  0
  -33.9135    7.3928  -42.8899 C   0  0  0  0  0  0  0  0  0  0  0  0
  -34.1488    8.0592  -41.9099 O   0  0  0  0  0  0  0  0  0  0  0  0
  -34.8646    6.2995  -43.3038 C   0  0  0  0  0  0  0  0  0  0  0  0
  -36.0770    6.3070  -42.3516 C   0  0  0  0  0  0  0  0  0  0  0  0
  -36.8664    4.9883  -42.4146 C   0  0  0  0  0  0  0  0  0  0  0  0
  -36.9975    4.4863  -43.8307 C   0  0  0  0  0  0  0  0  0  0  0  0
  -35.9111    3.5167  -44.0748 N   0  0  0  0  0  0  0  0  0  0  0  0
  -34.6839    4.0882  -44.4231 C   0  0  0  0  0  0  0  0  0  0  0  0
  -34.1284    4.9840  -43.2945 C   0  0  0  0  0  0  0  0  0  0  0  0
  -36.3861    2.3397  -45.2205 X   0  0  0  0  0  0  0  0  0  0  0  0
  1  2  1  0  0  0  0
  2  3  1  0  0  0  0
  3  4  2  0  0  0  0
  3  5  1  0  0  0  0
  5  6  1  0  0  0  0
  5 11  1  0  0  0  0
  6  7  1  0  0  0  0
  7  8  1  0  0  0  0
  8  9  1  0  0  0  0
  9 10  1  0  0  0  0
  9 12  1  0  0  0  0
 10 11  1  0  0  0  0
M  END
> <Index>
8403

> <PropertyFieldDistance>
nan

$$$$
9050198
BBcorina  12272117083D 1   1.00000     0.00000 
CORINA 4.3.0 0026  30.10.2019
  9  9  0  0  0  0  0  0  0  0999 V2000
  -32.5626    5.0147  -42.3849 C   0  0  0  0  0  0  0  0  0  0  0  0
  -33.9790    5.5834  -42.2801 C   0  0  0  0  0  0  0  0  0  0  0  0
  -34.9963    4.4557  -42.4657 C   0  0  0  0  0  0  0  0  0  0  0  0
  -34.9055    3.5242  -41.3859 O   0  0  0  0  0  0  0  0  0  0  0  0
  -36.4271    5.0338  -42.5595 C   0  0  0  0  0  0  0  0  0  0  0  0
  -37.0854    4.1536  -43.6516 C   0  0  0  0  0  0  0  0  0  0  0  0
  -35.9828    3.9350  -44.6224 N   0  0  0  0  0  0  0  0  0  0  0  0
  -34.7625    3.7407  -43.8095 C   0  0  0  0  0  0  0  0  0  0  0  0
  -36.2908    2.5675  -45.6018 X   0  0  0  0  0  0  0  0  0  0  0  0
  1  2  1  0  0  0  0
  2  3  1  0  0  0  0
  3  4  1  0  0  0  0
  3  5  1  0  0  0  0
  3  8  1  0  0  0  0
  5  6  1  0  0  0  0
  6  7  1  0  0  0  0
  7  8  1  0  0  0  0
  7  9  1  0  0  0  0
M  END
> <Index>
8406

> <PropertyFieldDistance>
nan

$$$$
14472688
BBcorina  12272117083D 1   1.00000     0.00000 
CORINA 4.3.0 0026  30.10.2019
  9 10  0  0  0  0  0  0  0  0999 V2000
  -36.0501    3.5824  -44.4739 N   0  0  0  0  0  0  0  0  0  0  0  0
  -37.0253    4.4874  -43.8292 C   0  0  0  0  0  0  0  0  0  0  0  0
  -36.4512    4.8678  -42.4538 C   0  0  0  0  0  0  0  0  0  0  0  0
  -36.1248    6.2768  -42.4586 O   0  0  0  0  0  0  0  0  0  0  0  0
  -34.9656    6.3599  -41.6035 C   0  0  0  0  0  0  0  0  0  0  0  0
  -34.1657    5.2036  -41.9018 O   0  0  0  0  0  0  0  0  0  0  0  0
  -35.0536    4.1873  -42.3956 C   0  0  0  0  0  0  0  0  0  0  0  0
  -34.7311    3.9255  -43.8861 C   0  0  0  0  0  0  0  0  0  0  0  0
  -36.0405    3.7999  -46.1700 X   0  0  0  0  0  0  0  0  0  0  0  0
  1  2  1  0  0  0  0
  1  8  1  0  0  0  0
  1  9  1  0  0  0  0
  2  3  1  0  0  0  0
  3  4  1  0  0  0  0
  3  7  1  0  0  0  0
  4  5  1  0  0  0  0
  5  6  1  0  0  0  0
  6  7  1  0  0  0  0
  7  8  1  0  0  0  0
M  END
> <Index>
8407

> <PropertyFieldDistance>
nan

$$$$
15264138
BBcorina  12272117083D 1   1.00000     0.00000 
CORINA 4.3.0 0026  30.10.2019
  8  8  0  0  0  0  0  0  0  0999 V2000
  -37.1635    4.8798  -41.2254 C   0  0  0  0  0  0  0  0  0  0  0  0
  -36.4283    5.0343  -42.5583 C   0  0  0  0  0  0  0  0  0  0  0  0
  -37.0847    4.1543  -43.6516 C   0  0  0  0  0  0  0  0  0  0  0  0
  -35.9827    3.9339  -44.6227 N   0  0  0  0  0  0  0  0  0  0  0  0
  -34.7619    3.7407  -43.8104 C   0  0  0  0  0  0  0  0  0  0  0  0
  -34.9948    4.4578  -42.4676 C   0  0  0  0  0  0  0  0  0  0  0  0
  -34.9057    3.5275  -41.3865 O   0  0  0  0  0  0  0  0  0  0  0  0
  -36.2915    2.5648  -45.5998 X   0  0  0  0  0  0  0  0  0  0  0  0
  1  2  1  0  0  0  0
  2  3  1  0  0  0  0
  2  6  1  0  0  0  0
  3  4  1  0  0  0  0
  4  5  1  0  0  0  0
  4  8  1  0  0  0  0
  5  6  1  0  0  0  0
  6  7  1  0  0  0  0
M  END
> <Index>
8408

> <PropertyFieldDistance>
nan

$$$$
11688052
BBcorina  12272117083D 1   1.00000     0.00000 
CORINA 4.3.0 0026  30.10.2019
 11 12  0  0  0  0  0  0  0  0999 V2000
  -34.0113    5.9057  -42.7369 O   0  0  0  0  0  0  0  0  0  0  0  0
  -35.0486    5.3736  -43.5634 C   0  0  0  0  0  0  0  0  0  0  0  0
  -36.3861    5.2931  -42.7812 C   0  0  0  0  0  0  0  0  0  0  0  0
  -37.1153    4.1469  -43.5257 C   0  0  0  0  0  0  0  0  0  0  0  0
  -36.0497    3.1808  -43.8675 N   0  0  0  0  0  0  0  0  0  0  0  0
  -34.7628    3.8988  -43.9162 C   0  0  0  0  0  0  0  0  0  0  0  0
  -36.3312    2.5176  -45.1478 C   0  0  0  0  0  0  0  0  0  0  0  0
  -37.6410    1.7090  -45.1518 C   0  0  0  0  0  0  0  0  0  0  0  0
  -36.8848    0.6755  -45.8930 N   0  0  0  0  0  0  0  0  0  0  0  0
  -35.6096    1.1687  -45.3187 C   0  0  0  0  0  0  0  0  0  0  0  0
  -37.2543   -0.8895  -45.3114 X   0  0  0  0  0  0  0  0  0  0  0  0
  1  2  1  0  0  0  0
  2  3  1  0  0  0  0
  2  6  1  0  0  0  0
  3  4  1  0  0  0  0
  4  5  1  0  0  0  0
  5  6  1  0  0  0  0
  5  7  1  0  0  0  0
  7  8  1  0  0  0  0
  7 10  1  0  0  0  0
  8  9  1  0  0  0  0
  9 10  1  0  0  0  0
  9 11  1  0  0  0  0
M  END
> <Index>
8409

> <PropertyFieldDistance>
nan

$$$$
12432332
BBcorina  12272117083D 1   1.00000     0.00000 
CORINA 4.3.0 0026  30.10.2019
 15 16  0  0  0  0  0  0  0  0999 V2000
  -36.4166    2.5469  -45.1890 C   0  0  0  0  0  0  0  0  0  0  0  0
  -36.0482    3.7315  -44.4023 N   0  0  0  0  0  0  0  0  0  0  0  0
  -36.9602    3.9125  -43.2643 C   0  0  0  0  0  0  0  0  0  0  0  0
  -36.5928    5.1975  -42.5185 C   0  0  0  0  0  0  0  0  0  0  0  0
  -35.1980    5.1148  -42.0632 N   0  0  0  0  0  0  0  0  0  0  0  0
  -34.2855    4.9341  -43.2009 C   0  0  0  0  0  0  0  0  0  0  0  0
  -34.6530    3.6490  -43.9468 C   0  0  0  0  0  0  0  0  0  0  0  0
  -34.8493    6.2374  -41.3176 C   0  0  0  0  0  0  0  0  0  0  0  0
  -35.7739    7.2579  -41.0857 C   0  0  0  0  0  0  0  0  0  0  0  0
  -35.3938    8.3542  -40.3428 C   0  0  0  0  0  0  0  0  0  0  0  0
  -34.1724    8.4499  -39.8501 N   0  0  0  0  0  0  0  0  0  0  0  0
  -33.2639    7.5048  -40.0463 C   0  0  0  0  0  0  0  0  0  0  0  0
  -31.9909    7.6514  -39.5069 N   0  0  0  0  0  0  0  0  0  0  0  0
  -33.5723    6.3679  -40.7800 C   0  0  0  0  0  0  0  0  0  0  0  0
  -31.6037    9.0457  -38.5958 X   0  0  0  0  0  0  0  0  0  0  0  0
  1  2  1  0  0  0  0
  2  3  1  0  0  0  0
  2  7  1  0  0  0  0
  3  4  1  0  0  0  0
  4  5  1  0  0  0  0
  5  6  1  0  0  0  0
  5  8  1  0  0  0  0
  6  7  1  0  0  0  0
  8  9  2  0  0  0  0
  8 14  1  0  0  0  0
  9 10  1  0  0  0  0
 10 11  2  0  0  0  0
 11 12  1  0  0  0  0
 12 13  1  0  0  0  0
 12 14  2  0  0  0  0
 13 15  1  0  0  0  0
M  END
> <Index>
8416

> <PropertyFieldDistance>
nan

$$$$
5821886
BBcorina  12272117083D 1   1.00000     0.00000 
CORINA 4.3.0 0026  30.10.2019
 13 14  0  0  0  0  0  0  0  0999 V2000
  -35.7891   -1.4498  -44.6342 C   0  0  0  0  0  0  0  0  0  0  0  0
  -36.2237   -0.2582  -45.4899 C   0  0  0  0  0  0  0  0  0  0  0  0
  -37.5611    0.3096  -44.9893 C   0  0  0  0  0  0  0  0  0  0  0  0
  -37.4181    1.6816  -44.5558 N   0  0  0  0  0  0  0  0  0  0  0  0
  -36.2720    2.2574  -44.6237 C   0  0  0  0  0  0  0  0  0  0  0  0
  -35.0719    1.1379  -45.2803 S   0  0  0  0  0  0  0  0  0  0  0  0
  -36.0161    3.5541  -44.2419 N   0  0  0  0  0  0  0  0  0  0  0  0
  -37.0865    4.4082  -43.7054 C   0  0  0  0  0  0  0  0  0  0  0  0
  -36.6062    5.0188  -42.3846 C   0  0  0  0  0  0  0  0  0  0  0  0
  -35.3207    5.6962  -42.6009 N   0  0  0  0  0  0  0  0  0  0  0  0
  -34.2799    4.7448  -43.0128 C   0  0  0  0  0  0  0  0  0  0  0  0
  -34.6636    4.1210  -44.3536 C   0  0  0  0  0  0  0  0  0  0  0  0
  -34.8421    6.5622  -41.2062 X   0  0  0  0  0  0  0  0  0  0  0  0
  1  2  1  0  0  0  0
  2  3  1  0  0  0  0
  2  6  1  0  0  0  0
  3  4  1  0  0  0  0
  4  5  2  0  0  0  0
  5  6  1  0  0  0  0
  5  7  1  0  0  0  0
  7  8  1  0  0  0  0
  7 12  1  0  0  0  0
  8  9  1  0  0  0  0
  9 10  1  0  0  0  0
 10 11  1  0  0  0  0
 10 13  1  0  0  0  0
 11 12  1  0  0  0  0
M  END
> <Index>
8445

> <PropertyFieldDistance>
nan

$$$$
5826050
BBcorina  12272117083D 1   1.00000     0.00000 
CORINA 4.3.0 0026  30.10.2019
 11 11  0  0  0  0  0  0  0  0999 V2000
  -37.8115    0.6597  -45.8594 C   0  0  0  0  0  0  0  0  0  0  0  0
  -37.6095    1.9036  -45.1381 O   0  0  0  0  0  0  0  0  0  0  0  0
  -36.3372    2.2625  -44.8828 C   0  0  0  0  0  0  0  0  0  0  0  0
  -35.4208    1.5556  -45.2526 O   0  0  0  0  0  0  0  0  0  0  0  0
  -36.0803    3.4058  -44.2171 N   0  0  0  0  0  0  0  0  0  0  0  0
  -37.0917    4.3529  -43.7137 C   0  0  0  0  0  0  0  0  0  0  0  0
  -36.3913    5.1007  -42.5519 C   0  0  0  0  0  0  0  0  0  0  0  0
  -34.9436    5.2328  -43.0942 C   0  0  0  0  0  0  0  0  0  0  0  0
  -34.7447    3.9153  -43.8729 C   0  0  0  0  0  0  0  0  0  0  0  0
  -33.9815    5.3333  -41.9886 N   0  0  0  0  0  0  0  0  0  0  0  0
  -32.5584    6.1405  -42.4861 X   0  0  0  0  0  0  0  0  0  0  0  0
  1  2  1  0  0  0  0
  2  3  1  0  0  0  0
  3  4  2  0  0  0  0
  3  5  1  0  0  0  0
  5  6  1  0  0  0  0
  5  9  1  0  0  0  0
  6  7  1  0  0  0  0
  7  8  1  0  0  0  0
  8  9  1  0  0  0  0
  8 10  1  0  0  0  0
 10 11  1  0  0  0  0
M  END
> <Index>
8446

> <PropertyFieldDistance>
nan

$$$$
5821888
BBcorina  12272117083D 1   1.00000     0.00000 
CORINA 4.3.0 0026  30.10.2019
 13 14  0  0  0  0  0  0  0  0999 V2000
  -35.5204   -0.1802  -47.3263 C   0  0  0  0  0  0  0  0  0  0  0  0
  -36.1549    0.6053  -46.2077 C   0  0  0  0  0  0  0  0  0  0  0  0
  -37.1632    0.1266  -45.5388 N   0  0  0  0  0  0  0  0  0  0  0  0
  -37.5616    1.3146  -44.3906 S   0  0  0  0  0  0  0  0  0  0  0  0
  -36.3246    2.4062  -44.8876 C   0  0  0  0  0  0  0  0  0  0  0  0
  -35.7117    1.7972  -45.8807 N   0  0  0  0  0  0  0  0  0  0  0  0
  -36.0411    3.6536  -44.3615 N   0  0  0  0  0  0  0  0  0  0  0  0
  -36.9586    3.9821  -43.2615 C   0  0  0  0  0  0  0  0  0  0  0  0
  -36.6647    5.3982  -42.7608 C   0  0  0  0  0  0  0  0  0  0  0  0
  -35.2659    5.4776  -42.3170 N   0  0  0  0  0  0  0  0  0  0  0  0
  -34.3481    5.1495  -43.4168 C   0  0  0  0  0  0  0  0  0  0  0  0
  -34.6420    3.7333  -43.9176 C   0  0  0  0  0  0  0  0  0  0  0  0
  -34.9160    7.0198  -41.6664 X   0  0  0  0  0  0  0  0  0  0  0  0
  1  2  1  0  0  0  0
  2  3  2  0  0  0  0
  2  6  1  0  0  0  0
  3  4  1  0  0  0  0
  4  5  1  0  0  0  0
  5  6  2  0  0  0  0
  5  7  1  0  0  0  0
  7  8  1  0  0  0  0
  7 12  1  0  0  0  0
  8  9  1  0  0  0  0
  9 10  1  0  0  0  0
 10 11  1  0  0  0  0
 10 13  1  0  0  0  0
 11 12  1  0  0  0  0
M  END
> <Index>
8447

> <PropertyFieldDistance>
nan

$$$$
10427768
BBcorina  12272117083D 1   1.00000     0.00000 
CORINA 4.3.0 0026  30.10.2019
 13 15  0  0  0  0  0  0  0  0999 V2000
  -35.5620    5.4513  -40.2474 N   0  0  0  0  0  0  0  0  0  0  0  0
  -35.4937    5.2222  -41.6968 C   0  0  0  0  0  0  0  0  0  0  0  0
  -36.9012    4.9529  -42.2368 C   0  0  0  0  0  0  0  0  0  0  0  0
  -36.7995    4.5693  -43.7218 C   0  0  0  0  0  0  0  0  0  0  0  0
  -35.8762    5.5985  -44.4138 C   0  0  0  0  0  0  0  0  0  0  0  0
  -34.4537    5.0223  -44.2558 C   0  0  0  0  0  0  0  0  0  0  0  0
  -34.6467    3.6974  -43.4826 C   0  0  0  0  0  0  0  0  0  0  0  0
  -34.5920    4.0174  -41.9802 C   0  0  0  0  0  0  0  0  0  0  0  0
  -36.0426    3.2913  -43.7961 N   0  0  0  0  0  0  0  0  0  0  0  0
  -36.1309    2.7045  -45.1400 C   0  0  0  0  0  0  0  0  0  0  0  0
  -35.4023    1.3812  -45.3823 C   0  0  0  0  0  0  0  0  0  0  0  0
  -34.8553    2.6772  -45.9842 C   0  0  0  0  0  0  0  0  0  0  0  0
  -36.1048    4.0506  -39.4305 X   0  0  0  0  0  0  0  0  0  0  0  0
  1  2  1  0  0  0  0
  1 13  1  0  0  0  0
  2  3  1  0  0  0  0
  2  8  1  0  0  0  0
  3  4  1  0  0  0  0
  4  5  1  0  0  0  0
  4  9  1  0  0  0  0
  5  6  1  0  0  0  0
  6  7  1  0  0  0  0
  7  8  1  0  0  0  0
  7  9  1  0  0  0  0
  9 10  1  0  0  0  0
 10 11  1  0  0  0  0
 10 12  1  0  0  0  0
 11 12  1  0  0  0  0
M  END
> <Index>
8451

> <PropertyFieldDistance>
nan

$$$$
14787332
BBcorina  12272117083D 1   1.00000     0.00000 
CORINA 4.3.0 0026  30.10.2019
 12 13  0  0  0  0  0  0  0  0999 V2000
  -36.0186    3.8881  -44.5694 N   0  0  0  0  0  0  0  0  0  0  0  0
  -36.9935    4.0448  -43.4899 C   0  0  0  0  0  0  0  0  0  0  0  0
  -36.6705    5.2437  -42.6080 C   0  0  0  0  0  0  0  0  0  0  0  0
  -35.2455    5.1110  -42.0622 C   0  0  0  0  0  0  0  0  0  0  0  0
  -34.2783    5.0423  -43.2480 C   0  0  0  0  0  0  0  0  0  0  0  0
  -34.6264    3.8447  -44.1224 C   0  0  0  0  0  0  0  0  0  0  0  0
  -34.3495    2.5379  -43.3753 C   0  0  0  0  0  0  0  0  0  0  0  0
  -34.7471    2.7161  -41.9275 C   0  0  0  0  0  0  0  0  0  0  0  0
  -33.8970    2.7604  -41.0637 O   0  0  0  0  0  0  0  0  0  0  0  0
  -36.0442    2.8203  -41.6018 N   0  0  0  0  0  0  0  0  0  0  0  0
  -37.0706    2.7672  -42.6520 C   0  0  0  0  0  0  0  0  0  0  0  0
  -36.3930    2.5316  -45.5409 X   0  0  0  0  0  0  0  0  0  0  0  0
  1  2  1  0  0  0  0
  1  6  1  0  0  0  0
  1 12  1  0  0  0  0
  2  3  1  0  0  0  0
  2 11  1  0  0  0  0
  3  4  1  0  0  0  0
  4  5  1  0  0  0  0
  5  6  1  0  0  0  0
  6  7  1  0  0  0  0
  7  8  1  0  0  0  0
  8  9  2  0  0  0  0
  8 10  1  0  0  0  0
 10 11  1  0  0  0  0
M  END
> <Index>
8452

> <PropertyFieldDistance>
nan

$$$$
5825706
BBcorina  12272117083D 1   1.00000     0.00000 
CORINA 4.3.0 0026  30.10.2019
 13 14  0  0  0  0  0  0  0  0999 V2000
  -34.9722   -0.7089  -45.2634 N   0  0  0  0  0  0  0  0  0  0  0  0
  -36.0476   -0.7386  -46.2880 C   0  0  0  0  0  0  0  0  0  0  0  0
  -36.1525    0.7195  -46.7842 C   0  0  0  0  0  0  0  0  0  0  0  0
  -35.5943    1.5770  -45.6298 C   0  0  0  0  0  0  0  0  0  0  0  0
  -36.6701    2.5319  -45.1086 C   0  0  0  0  0  0  0  0  0  0  0  0
  -36.1060    3.3702  -44.0423 N   0  0  0  0  0  0  0  0  0  0  0  0
  -37.0853    4.3644  -43.5801 C   0  0  0  0  0  0  0  0  0  0  0  0
  -36.4785    5.1745  -42.4314 C   0  0  0  0  0  0  0  0  0  0  0  0
  -35.2600    5.7794  -42.8729 O   0  0  0  0  0  0  0  0  0  0  0  0
  -34.2833    4.8397  -43.3295 C   0  0  0  0  0  0  0  0  0  0  0  0
  -34.8679    4.0262  -44.4873 C   0  0  0  0  0  0  0  0  0  0  0  0
  -35.1990    0.5648  -44.5331 C   0  0  0  0  0  0  0  0  0  0  0  0
  -35.0931   -2.0497  -44.2091 X   0  0  0  0  0  0  0  0  0  0  0  0
  1  2  1  0  0  0  0
  1 12  1  0  0  0  0
  1 13  1  0  0  0  0
  2  3  1  0  0  0  0
  3  4  1  0  0  0  0
  4  5  1  0  0  0  0
  4 12  1  0  0  0  0
  5  6  1  0  0  0  0
  6  7  1  0  0  0  0
  6 11  1  0  0  0  0
  7  8  1  0  0  0  0
  8  9  1  0  0  0  0
  9 10  1  0  0  0  0
 10 11  1  0  0  0  0
M  END
> <Index>
8469

> <PropertyFieldDistance>
nan

$$$$
5825212
BBcorina  12272117083D 1   1.00000     0.00000 
CORINA 4.3.0 0026  30.10.2019
 13 13  0  0  0  0  0  0  0  0999 V2000
  -32.5524    3.7849  -41.9008 C   0  0  0  0  0  0  0  0  0  0  0  0
  -32.9079    4.9147  -42.7629 N   0  0  0  0  0  0  0  0  0  0  0  0
  -34.2769    5.0496  -43.2665 C   0  0  0  0  0  0  0  0  0  0  0  0
  -35.2462    5.1676  -42.0870 C   0  0  0  0  0  0  0  0  0  0  0  0
  -36.6794    5.2476  -42.6202 C   0  0  0  0  0  0  0  0  0  0  0  0
  -36.9723    4.0087  -43.4695 C   0  0  0  0  0  0  0  0  0  0  0  0
  -36.0192    3.9414  -44.5845 N   0  0  0  0  0  0  0  0  0  0  0  0
  -34.6396    3.8164  -44.0970 C   0  0  0  0  0  0  0  0  0  0  0  0
  -31.7604    6.0360  -43.1738 S   0  0  0  0  0  0  0  0  0  0  0  0
  -30.5308    5.3298  -43.0792 O   0  0  0  0  0  0  0  0  0  0  0  0
  -32.2109    6.5597  -44.4155 O   0  0  0  0  0  0  0  0  0  0  0  0
  -31.8725    7.2957  -41.8734 C   0  0  0  0  0  0  0  0  0  0  0  0
  -36.4111    2.6621  -45.6495 X   0  0  0  0  0  0  0  0  0  0  0  0
  1  2  1  0  0  0  0
  2  3  1  0  0  0  0
  2  9  1  0  0  0  0
  3  4  1  0  0  0  0
  3  8  1  0  0  0  0
  4  5  1  0  0  0  0
  5  6  1  0  0  0  0
  6  7  1  0  0  0  0
  7  8  1  0  0  0  0
  7 13  1  0  0  0  0
  9 10  2  0  0  0  0
  9 11  2  0  0  0  0
  9 12  1  0  0  0  0
M  END
> <Index>
8491

> <PropertyFieldDistance>
nan

$$$$
6391954
BBcorina  12272117083D 1   1.00000     0.00000 
CORINA 4.3.0 0026  30.10.2019
 10 10  0  0  0  0  0  0  0  0999 V2000
  -34.3437    5.9377  -42.0492 C   0  0  0  0  0  0  0  0  0  0  0  0
  -35.1786    5.4043  -43.2151 C   0  0  0  0  0  0  0  0  0  0  0  0
  -36.6262    5.0855  -42.7574 C   0  0  0  0  0  0  0  0  0  0  0  0
  -37.0460    4.0006  -43.7803 C   0  0  0  0  0  0  0  0  0  0  0  0
  -35.8243    3.1982  -44.0024 N   0  0  0  0  0  0  0  0  0  0  0  0
  -35.7596    2.7098  -45.3862 C   0  0  0  0  0  0  0  0  0  0  0  0
  -36.8490    1.6584  -45.6074 C   0  0  0  0  0  0  0  0  0  0  0  0
  -36.7843    1.1699  -46.9913 N   0  0  0  0  0  0  0  0  0  0  0  0
  -34.6508    4.0309  -43.6806 C   0  0  0  0  0  0  0  0  0  0  0  0
  -37.9877   -0.0098  -47.2816 X   0  0  0  0  0  0  0  0  0  0  0  0
  1  2  1  0  0  0  0
  2  3  1  0  0  0  0
  2  9  1  0  0  0  0
  3  4  1  0  0  0  0
  4  5  1  0  0  0  0
  5  6  1  0  0  0  0
  5  9  1  0  0  0  0
  6  7  1  0  0  0  0
  7  8  1  0  0  0  0
  8 10  1  0  0  0  0
M  END
> <Index>
8496

> <PropertyFieldDistance>
nan

$$$$
5905190
BBcorina  12272117083D 1   1.00000     0.00000 
CORINA 4.3.0 0026  30.10.2019
 10 10  0  0  0  0  0  0  0  0999 V2000
  -33.6407    7.3299  -41.6052 C   0  0  0  0  0  0  0  0  0  0  0  0
  -34.9467    6.5602  -41.3976 C   0  0  0  0  0  0  0  0  0  0  0  0
  -36.0466    7.5302  -40.9618 C   0  0  0  0  0  0  0  0  0  0  0  0
  -35.3535    5.8832  -42.7080 C   0  0  0  0  0  0  0  0  0  0  0  0
  -36.6587    5.1099  -42.5007 C   0  0  0  0  0  0  0  0  0  0  0  0
  -37.0290    4.3869  -43.7977 C   0  0  0  0  0  0  0  0  0  0  0  0
  -35.9480    3.4664  -44.1723 N   0  0  0  0  0  0  0  0  0  0  0  0
  -34.6958    4.1916  -44.4226 C   0  0  0  0  0  0  0  0  0  0  0  0
  -34.2558    4.9088  -43.1443 C   0  0  0  0  0  0  0  0  0  0  0  0
  -36.3899    2.5209  -45.5269 X   0  0  0  0  0  0  0  0  0  0  0  0
  1  2  1  0  0  0  0
  2  3  1  0  0  0  0
  2  4  1  0  0  0  0
  4  5  1  0  0  0  0
  4  9  1  0  0  0  0
  5  6  1  0  0  0  0
  6  7  1  0  0  0  0
  7  8  1  0  0  0  0
  7 10  1  0  0  0  0
  8  9  1  0  0  0  0
M  END
> <Index>
8509

> <PropertyFieldDistance>
nan

$$$$
5904830
BBcorina  12272117083D 1   1.00000     0.00000 
CORINA 4.3.0 0026  30.10.2019
 11 12  0  0  0  0  0  0  0  0999 V2000
  -36.8858    3.6166  -46.7457 N   0  0  0  0  0  0  0  0  0  0  0  0
  -36.1783    3.0008  -45.6151 C   0  0  0  0  0  0  0  0  0  0  0  0
  -34.7249    3.4648  -45.6238 C   0  0  0  0  0  0  0  0  0  0  0  0
  -33.9603    2.9451  -44.3955 C   0  0  0  0  0  0  0  0  0  0  0  0
  -34.6918    3.4451  -43.1631 C   0  0  0  0  0  0  0  0  0  0  0  0
  -34.1312    2.9773  -41.8173 C   0  0  0  0  0  0  0  0  0  0  0  0
  -35.3500    3.1159  -40.8646 C   0  0  0  0  0  0  0  0  0  0  0  0
  -36.6134    3.0418  -41.7579 C   0  0  0  0  0  0  0  0  0  0  0  0
  -36.0953    2.7773  -43.1677 C   0  0  0  0  0  0  0  0  0  0  0  0
  -36.8854    3.3911  -44.3067 C   0  0  0  0  0  0  0  0  0  0  0  0
  -38.2159    2.6580  -47.2317 X   0  0  0  0  0  0  0  0  0  0  0  0
  1  2  1  0  0  0  0
  1 11  1  0  0  0  0
  2  3  1  0  0  0  0
  2 10  1  0  0  0  0
  3  4  1  0  0  0  0
  4  5  1  0  0  0  0
  5  6  1  0  0  0  0
  5  9  1  0  0  0  0
  6  7  1  0  0  0  0
  7  8  1  0  0  0  0
  8  9  1  0  0  0  0
  9 10  1  0  0  0  0
M  END
> <Index>
8519

> <PropertyFieldDistance>
nan

$$$$
9875758
BBcorina  12272117083D 1   1.00000     0.00000 
CORINA 4.3.0 0026  30.10.2019
 10 10  0  0  0  0  0  0  0  0999 V2000
  -36.3353    2.3132  -45.0147 C   0  0  0  0  0  0  0  0  0  0  0  0
  -36.0596    3.4492  -44.1315 N   0  0  0  0  0  0  0  0  0  0  0  0
  -37.0285    4.1575  -43.5384 C   0  0  0  0  0  0  0  0  0  0  0  0
  -38.2180    3.9545  -43.6542 O   0  0  0  0  0  0  0  0  0  0  0  0
  -36.4034    5.2495  -42.6980 C   0  0  0  0  0  0  0  0  0  0  0  0
  -34.8895    5.0535  -42.9184 C   0  0  0  0  0  0  0  0  0  0  0  0
  -34.2999    6.2441  -43.5451 N   0  0  0  0  0  0  0  0  0  0  0  0
  -34.8183    3.8679  -43.8558 C   0  0  0  0  0  0  0  0  0  0  0  0
  -33.7987    3.3750  -44.2883 O   0  0  0  0  0  0  0  0  0  0  0  0
  -35.1033    6.6299  -45.0046 X   0  0  0  0  0  0  0  0  0  0  0  0
  1  2  1  0  0  0  0
  2  3  1  0  0  0  0
  2  8  1  0  0  0  0
  3  4  2  0  0  0  0
  3  5  1  0  0  0  0
  5  6  1  0  0  0  0
  6  7  1  0  0  0  0
  6  8  1  0  0  0  0
  7 10  1  0  0  0  0
  8  9  2  0  0  0  0
M  END
> <Index>
8525

> <PropertyFieldDistance>
nan

$$$$
5905428
BBcorina  12272117083D 1   1.00000     0.00000 
CORINA 4.3.0 0026  30.10.2019
 13 14  0  0  0  0  0  0  0  0999 V2000
  -35.7292    1.9472  -48.3677 N   0  0  0  0  0  0  0  0  0  0  0  0
  -36.4606    0.7139  -47.9792 C   0  0  0  0  0  0  0  0  0  0  0  0
  -36.0827    0.4872  -46.4996 C   0  0  0  0  0  0  0  0  0  0  0  0
  -35.6760    1.8785  -45.9721 C   0  0  0  0  0  0  0  0  0  0  0  0
  -36.5991    2.3040  -44.8285 C   0  0  0  0  0  0  0  0  0  0  0  0
  -36.1733    3.6134  -44.3168 N   0  0  0  0  0  0  0  0  0  0  0  0
  -36.9819    4.0141  -43.1584 C   0  0  0  0  0  0  0  0  0  0  0  0
  -36.6103    5.4395  -42.7437 C   0  0  0  0  0  0  0  0  0  0  0  0
  -35.1211    5.4926  -42.3919 C   0  0  0  0  0  0  0  0  0  0  0  0
  -34.3033    5.0238  -43.5997 C   0  0  0  0  0  0  0  0  0  0  0  0
  -34.7417    3.6104  -43.9896 C   0  0  0  0  0  0  0  0  0  0  0  0
  -35.8425    2.8289  -47.1773 C   0  0  0  0  0  0  0  0  0  0  0  0
  -36.4426    2.6761  -49.7402 X   0  0  0  0  0  0  0  0  0  0  0  0
  1  2  1  0  0  0  0
  1 12  1  0  0  0  0
  1 13  1  0  0  0  0
  2  3  1  0  0  0  0
  3  4  1  0  0  0  0
  4  5  1  0  0  0  0
  4 12  1  0  0  0  0
  5  6  1  0  0  0  0
  6  7  1  0  0  0  0
  6 11  1  0  0  0  0
  7  8  1  0  0  0  0
  8  9  1  0  0  0  0
  9 10  1  0  0  0  0
 10 11  1  0  0  0  0
M  END
> <Index>
8530

> <PropertyFieldDistance>
nan

$$$$
12110522
BBcorina  12272117083D 1   1.00000     0.00000 
CORINA 4.3.0 0026  30.10.2019
 10 11  0  0  0  0  0  0  0  0999 V2000
  -36.7052    7.7836  -43.5798 C   0  0  0  0  0  0  0  0  0  0  0  0
  -36.0608    6.4104  -43.3798 C   0  0  0  0  0  0  0  0  0  0  0  0
  -37.1460    5.3818  -43.0487 C   0  0  0  0  0  0  0  0  0  0  0  0
  -36.5078    3.9844  -42.9967 C   0  0  0  0  0  0  0  0  0  0  0  0
  -35.2277    4.0809  -42.1351 C   0  0  0  0  0  0  0  0  0  0  0  0
  -34.1102    4.4607  -43.1289 C   0  0  0  0  0  0  0  0  0  0  0  0
  -34.8167    4.5590  -44.5007 C   0  0  0  0  0  0  0  0  0  0  0  0
  -35.3319    5.9982  -44.6619 C   0  0  0  0  0  0  0  0  0  0  0  0
  -36.0066    3.6777  -44.3628 N   0  0  0  0  0  0  0  0  0  0  0  0
  -35.5683    2.0305  -44.4993 X   0  0  0  0  0  0  0  0  0  0  0  0
  1  2  1  0  0  0  0
  2  3  1  0  0  0  0
  2  8  1  0  0  0  0
  3  4  1  0  0  0  0
  4  5  1  0  0  0  0
  4  9  1  0  0  0  0
  5  6  1  0  0  0  0
  6  7  1  0  0  0  0
  7  8  1  0  0  0  0
  7  9  1  0  0  0  0
  9 10  1  0  0  0  0
M  END
> <Index>
8533

> <PropertyFieldDistance>
nan

$$$$
6008976
BBcorina  12272117083D 1   1.00000     0.00000 
CORINA 4.3.0 0026  30.10.2019
 16 17  0  0  0  0  0  0  0  0999 V2000
  -37.3235   -0.8437  -47.5743 C   0  0  0  0  0  0  0  0  0  0  0  0
  -36.9688    0.2991  -46.6582 C   0  0  0  0  0  0  0  0  0  0  0  0
  -37.0531    1.6014  -47.1154 C   0  0  0  0  0  0  0  0  0  0  0  0
  -36.7282    2.6510  -46.2784 C   0  0  0  0  0  0  0  0  0  0  0  0
  -36.3170    2.3974  -44.9764 C   0  0  0  0  0  0  0  0  0  0  0  0
  -36.2284    1.0881  -44.5221 C   0  0  0  0  0  0  0  0  0  0  0  0
  -36.5601    0.0432  -45.3622 C   0  0  0  0  0  0  0  0  0  0  0  0
  -35.9872    3.4585  -44.1261 N   0  0  0  0  0  0  0  0  0  0  0  0
  -37.0448    4.0240  -43.2976 C   0  0  0  0  0  0  0  0  0  0  0  0
  -36.6546    5.4202  -42.8093 C   0  0  0  0  0  0  0  0  0  0  0  0
  -35.2546    5.3488  -42.1876 C   0  0  0  0  0  0  0  0  0  0  0  0
  -34.2457    5.0484  -43.2989 C   0  0  0  0  0  0  0  0  0  0  0  0
  -32.9461    4.7148  -42.7011 N   0  0  0  0  0  0  0  0  0  0  0  0
  -34.7253    3.8893  -44.1247 C   0  0  0  0  0  0  0  0  0  0  0  0
  -33.9215    3.3139  -44.8277 O   0  0  0  0  0  0  0  0  0  0  0  0
  -33.0716    3.3433  -41.6877 X   0  0  0  0  0  0  0  0  0  0  0  0
  1  2  1  0  0  0  0
  2  3  2  0  0  0  0
  2  7  1  0  0  0  0
  3  4  1  0  0  0  0
  4  5  2  0  0  0  0
  5  6  1  0  0  0  0
  5  8  1  0  0  0  0
  6  7  2  0  0  0  0
  8  9  1  0  0  0  0
  8 14  1  0  0  0  0
  9 10  1  0  0  0  0
 10 11  1  0  0  0  0
 11 12  1  0  0  0  0
 12 13  1  0  0  0  0
 12 14  1  0  0  0  0
 13 16  1  0  0  0  0
 14 15  2  0  0  0  0
M  END
> <Index>
8540

> <PropertyFieldDistance>
nan

$$$$
6201668
BBcorina  12272117083D 1   1.00000     0.00000 
CORINA 4.3.0 0026  30.10.2019
 16 17  0  0  0  0  0  0  0  0999 V2000
  -33.6216    6.9969  -41.2893 C   0  0  0  0  0  0  0  0  0  0  0  0
  -34.9719    6.8756  -41.8548 N   0  0  0  0  0  0  0  0  0  0  0  0
  -35.2421    5.4960  -42.2812 C   0  0  0  0  0  0  0  0  0  0  0  0
  -36.6958    5.3801  -42.7481 C   0  0  0  0  0  0  0  0  0  0  0  0
  -36.9540    3.9568  -43.2479 C   0  0  0  0  0  0  0  0  0  0  0  0
  -36.0395    3.6523  -44.3558 N   0  0  0  0  0  0  0  0  0  0  0  0
  -34.6385    3.7111  -43.9194 C   0  0  0  0  0  0  0  0  0  0  0  0
  -34.3113    5.1269  -43.4396 C   0  0  0  0  0  0  0  0  0  0  0  0
  -36.3357    2.4105  -44.9223 C   0  0  0  0  0  0  0  0  0  0  0  0
  -37.3832    1.6487  -44.4205 C   0  0  0  0  0  0  0  0  0  0  0  0
  -37.6749    0.4211  -44.9825 C   0  0  0  0  0  0  0  0  0  0  0  0
  -36.9290   -0.0486  -46.0473 C   0  0  0  0  0  0  0  0  0  0  0  0
  -35.8799    0.7054  -46.5476 C   0  0  0  0  0  0  0  0  0  0  0  0
  -35.1497    0.2415  -47.5853 F   0  0  0  0  0  0  0  0  0  0  0  0
  -35.5835    1.9352  -45.9888 C   0  0  0  0  0  0  0  0  0  0  0  0
  -36.1530    7.4154  -40.7422 X   0  0  0  0  0  0  0  0  0  0  0  0
  1  2  1  0  0  0  0
  2  3  1  0  0  0  0
  2 16  1  0  0  0  0
  3  4  1  0  0  0  0
  3  8  1  0  0  0  0
  4  5  1  0  0  0  0
  5  6  1  0  0  0  0
  6  7  1  0  0  0  0
  6  9  1  0  0  0  0
  7  8  1  0  0  0  0
  9 10  2  0  0  0  0
  9 15  1  0  0  0  0
 10 11  1  0  0  0  0
 11 12  2  0  0  0  0
 12 13  1  0  0  0  0
 13 14  1  0  0  0  0
 13 15  2  0  0  0  0
M  END
> <Index>
8546

> <PropertyFieldDistance>
nan

$$$$
6007606
BBcorina  12272117083D 1   1.00000     0.00000 
CORINA 4.3.0 0026  30.10.2019
 15 15  0  0  0  0  0  0  0  0999 V2000
  -36.4441    1.2263  -46.9293 F   0  0  0  0  0  0  0  0  0  0  0  0
  -35.6890    1.9504  -46.0005 C   0  0  0  0  0  0  0  0  0  0  0  0
  -34.9615    2.9441  -46.6641 F   0  0  0  0  0  0  0  0  0  0  0  0
  -34.8065    1.0871  -45.3424 F   0  0  0  0  0  0  0  0  0  0  0  0
  -36.6102    2.5900  -44.9937 C   0  0  0  0  0  0  0  0  0  0  0  0
  -37.8091    2.4284  -45.0802 O   0  0  0  0  0  0  0  0  0  0  0  0
  -36.1014    3.3371  -43.9940 N   0  0  0  0  0  0  0  0  0  0  0  0
  -36.9862    3.9620  -43.0015 C   0  0  0  0  0  0  0  0  0  0  0  0
  -36.6783    5.4615  -42.9412 C   0  0  0  0  0  0  0  0  0  0  0  0
  -35.1860    5.6612  -42.6669 C   0  0  0  0  0  0  0  0  0  0  0  0
  -34.8809    7.1574  -42.5718 C   0  0  0  0  0  0  0  0  0  0  0  0
  -33.4750    7.3473  -42.1906 N   0  0  0  0  0  0  0  0  0  0  0  0
  -34.3695    5.0458  -43.8056 C   0  0  0  0  0  0  0  0  0  0  0  0
  -34.6508    3.5370  -43.8725 C   0  0  0  0  0  0  0  0  0  0  0  0
  -33.0910    9.0095  -42.0728 X   0  0  0  0  0  0  0  0  0  0  0  0
  1  2  1  0  0  0  0
  2  3  1  0  0  0  0
  2  4  1  0  0  0  0
  2  5  1  0  0  0  0
  5  6  2  0  0  0  0
  5  7  1  0  0  0  0
  7  8  1  0  0  0  0
  7 14  1  0  0  0  0
  8  9  1  0  0  0  0
  9 10  1  0  0  0  0
 10 11  1  0  0  0  0
 10 13  1  0  0  0  0
 11 12  1  0  0  0  0
 12 15  1  0  0  0  0
 13 14  1  0  0  0  0
M  END
> <Index>
8547

> <PropertyFieldDistance>
nan

$$$$
6010254
BBcorina  12272117083D 1   1.00000     0.00000 
CORINA 4.3.0 0026  30.10.2019
 15 16  0  0  0  0  0  0  0  0999 V2000
  -38.4070   -0.2518  -46.2705 C   0  0  0  0  0  0  0  0  0  0  0  0
  -37.3691    0.7340  -45.9584 N   0  0  0  0  0  0  0  0  0  0  0  0
  -36.1872    0.8696  -46.5958 C   0  0  0  0  0  0  0  0  0  0  0  0
  -35.5183    1.8921  -46.0160 C   0  0  0  0  0  0  0  0  0  0  0  0
  -36.3176    2.3958  -44.9773 C   0  0  0  0  0  0  0  0  0  0  0  0
  -37.4303    1.7011  -44.9470 N   0  0  0  0  0  0  0  0  0  0  0  0
  -35.9872    3.4589  -44.1256 N   0  0  0  0  0  0  0  0  0  0  0  0
  -37.0447    4.0245  -43.2972 C   0  0  0  0  0  0  0  0  0  0  0  0
  -36.6543    5.4201  -42.8098 C   0  0  0  0  0  0  0  0  0  0  0  0
  -35.2545    5.3495  -42.1876 C   0  0  0  0  0  0  0  0  0  0  0  0
  -34.2457    5.0489  -43.2989 C   0  0  0  0  0  0  0  0  0  0  0  0
  -32.9460    4.7154  -42.7010 N   0  0  0  0  0  0  0  0  0  0  0  0
  -34.7252    3.8896  -44.1243 C   0  0  0  0  0  0  0  0  0  0  0  0
  -33.9215    3.3141  -44.8273 O   0  0  0  0  0  0  0  0  0  0  0  0
  -33.0715    3.3440  -41.6873 X   0  0  0  0  0  0  0  0  0  0  0  0
  1  2  1  0  0  0  0
  2  3  1  0  0  0  0
  2  6  1  0  0  0  0
  3  4  2  0  0  0  0
  4  5  1  0  0  0  0
  5  6  2  0  0  0  0
  5  7  1  0  0  0  0
  7  8  1  0  0  0  0
  7 13  1  0  0  0  0
  8  9  1  0  0  0  0
  9 10  1  0  0  0  0
 10 11  1  0  0  0  0
 11 12  1  0  0  0  0
 11 13  1  0  0  0  0
 12 15  1  0  0  0  0
 13 14  2  0  0  0  0
M  END
> <Index>
8557

> <PropertyFieldDistance>
nan

$$$$
6010302
BBcorina  12272117083D 1   1.00000     0.00000 
CORINA 4.3.0 0026  30.10.2019
 15 16  0  0  0  0  0  0  0  0999 V2000
  -37.4563   -0.6359  -47.6810 C   0  0  0  0  0  0  0  0  0  0  0  0
  -37.0559    0.4193  -46.6824 C   0  0  0  0  0  0  0  0  0  0  0  0
  -37.8139    0.6130  -45.5421 C   0  0  0  0  0  0  0  0  0  0  0  0
  -37.4495    1.5788  -44.6246 C   0  0  0  0  0  0  0  0  0  0  0  0
  -36.3203    2.3562  -44.8484 C   0  0  0  0  0  0  0  0  0  0  0  0
  -35.5642    2.1626  -45.9975 C   0  0  0  0  0  0  0  0  0  0  0  0
  -35.9311    1.1914  -46.9082 C   0  0  0  0  0  0  0  0  0  0  0  0
  -35.9492    3.3342  -43.9228 N   0  0  0  0  0  0  0  0  0  0  0  0
  -37.0464    4.2822  -43.6905 C   0  0  0  0  0  0  0  0  0  0  0  0
  -36.6585    5.2486  -42.5690 C   0  0  0  0  0  0  0  0  0  0  0  0
  -35.3854    6.0003  -42.9672 C   0  0  0  0  0  0  0  0  0  0  0  0
  -34.2719    4.9881  -43.2506 C   0  0  0  0  0  0  0  0  0  0  0  0
  -34.7284    4.0285  -44.3519 C   0  0  0  0  0  0  0  0  0  0  0  0
  -33.0632    5.6985  -43.6891 N   0  0  0  0  0  0  0  0  0  0  0  0
  -32.0722    6.1028  -42.3555 X   0  0  0  0  0  0  0  0  0  0  0  0
  1  2  1  0  0  0  0
  2  3  2  0  0  0  0
  2  7  1  0  0  0  0
  3  4  1  0  0  0  0
  4  5  2  0  0  0  0
  5  6  1  0  0  0  0
  5  8  1  0  0  0  0
  6  7  2  0  0  0  0
  8  9  1  0  0  0  0
  8 13  1  0  0  0  0
  9 10  1  0  0  0  0
 10 11  1  0  0  0  0
 11 12  1  0  0  0  0
 12 13  1  0  0  0  0
 12 14  1  0  0  0  0
 14 15  1  0  0  0  0
M  END
> <Index>
8558

> <PropertyFieldDistance>
nan

$$$$
6339286
BBcorina  12272117083D 1   1.00000     0.00000 
CORINA 4.3.0 0026  30.10.2019
 14 14  0  0  0  0  0  0  0  0999 V2000
  -35.7394    3.2832  -46.7418 C   0  0  0  0  0  0  0  0  0  0  0  0
  -36.6554    2.3641  -45.9315 C   0  0  0  0  0  0  0  0  0  0  0  0
  -35.9645    1.9823  -44.6208 C   0  0  0  0  0  0  0  0  0  0  0  0
  -36.8265    0.9677  -43.8666 C   0  0  0  0  0  0  0  0  0  0  0  0
  -36.9017   -0.3334  -44.6683 C   0  0  0  0  0  0  0  0  0  0  0  0
  -34.5985    1.3644  -44.9255 C   0  0  0  0  0  0  0  0  0  0  0  0
  -33.9633    0.9378  -43.6715 N   0  0  0  0  0  0  0  0  0  0  0  0
  -35.7854    3.1831  -43.7939 N   0  0  0  0  0  0  0  0  0  0  0  0
  -36.9637    4.0586  -43.8739 C   0  0  0  0  0  0  0  0  0  0  0  0
  -36.7600    5.2649  -42.9535 C   0  0  0  0  0  0  0  0  0  0  0  0
  -35.5560    5.9424  -43.3233 O   0  0  0  0  0  0  0  0  0  0  0  0
  -34.3884    5.1193  -43.2560 C   0  0  0  0  0  0  0  0  0  0  0  0
  -34.5680    3.9116  -44.1795 C   0  0  0  0  0  0  0  0  0  0  0  0
  -32.4876    0.1294  -43.9760 X   0  0  0  0  0  0  0  0  0  0  0  0
  1  2  1  0  0  0  0
  2  3  1  0  0  0  0
  3  4  1  0  0  0  0
  3  6  1  0  0  0  0
  3  8  1  0  0  0  0
  4  5  1  0  0  0  0
  6  7  1  0  0  0  0
  7 14  1  0  0  0  0
  8  9  1  0  0  0  0
  8 13  1  0  0  0  0
  9 10  1  0  0  0  0
 10 11  1  0  0  0  0
 11 12  1  0  0  0  0
 12 13  1  0  0  0  0
M  END
> <Index>
8559

> <PropertyFieldDistance>
nan

$$$$
12429592
BBcorina  12272117083D 1   1.00000     0.00000 
CORINA 4.3.0 0026  30.10.2019
 13 14  0  0  0  0  0  0  0  0999 V2000
  -36.3352    2.3074  -44.8785 C   0  0  0  0  0  0  0  0  0  0  0  0
  -35.9452    3.3419  -43.9112 N   0  0  0  0  0  0  0  0  0  0  0  0
  -37.0444    4.2900  -43.6827 C   0  0  0  0  0  0  0  0  0  0  0  0
  -36.6556    5.2624  -42.5665 C   0  0  0  0  0  0  0  0  0  0  0  0
  -35.3830    6.0111  -42.9690 C   0  0  0  0  0  0  0  0  0  0  0  0
  -34.2685    5.0007  -43.2490 C   0  0  0  0  0  0  0  0  0  0  0  0
  -34.7258    4.0354  -44.3452 C   0  0  0  0  0  0  0  0  0  0  0  0
  -35.6527    6.8381  -44.2281 C   0  0  0  0  0  0  0  0  0  0  0  0
  -36.7266    7.8852  -43.9240 C   0  0  0  0  0  0  0  0  0  0  0  0
  -36.2692    8.7542  -42.8324 N   0  0  0  0  0  0  0  0  0  0  0  0
  -36.0505    7.9879  -41.5990 C   0  0  0  0  0  0  0  0  0  0  0  0
  -34.9565    6.9433  -41.8328 C   0  0  0  0  0  0  0  0  0  0  0  0
  -37.3680   10.0380  -42.5696 X   0  0  0  0  0  0  0  0  0  0  0  0
  1  2  1  0  0  0  0
  2  3  1  0  0  0  0
  2  7  1  0  0  0  0
  3  4  1  0  0  0  0
  4  5  1  0  0  0  0
  5  6  1  0  0  0  0
  5  8  1  0  0  0  0
  5 12  1  0  0  0  0
  6  7  1  0  0  0  0
  8  9  1  0  0  0  0
  9 10  1  0  0  0  0
 10 11  1  0  0  0  0
 10 13  1  0  0  0  0
 11 12  1  0  0  0  0
M  END
> <Index>
8575

> <PropertyFieldDistance>
nan

$$$$
7919754
BBcorina  12272117083D 1   1.00000     0.00000 
CORINA 4.3.0 0026  30.10.2019
 14 15  0  0  0  0  0  0  0  0999 V2000
  -34.5492    2.6378  -46.4599 F   0  0  0  0  0  0  0  0  0  0  0  0
  -35.5626    1.9067  -45.9467 C   0  0  0  0  0  0  0  0  0  0  0  0
  -35.8581    0.6565  -46.4630 C   0  0  0  0  0  0  0  0  0  0  0  0
  -36.9092   -0.0594  -45.9044 C   0  0  0  0  0  0  0  0  0  0  0  0
  -37.6227    0.4913  -44.8596 C   0  0  0  0  0  0  0  0  0  0  0  0
  -37.3159    1.6835  -44.3831 N   0  0  0  0  0  0  0  0  0  0  0  0
  -36.3258    2.4003  -44.8904 C   0  0  0  0  0  0  0  0  0  0  0  0
  -36.0408    3.6550  -44.3609 N   0  0  0  0  0  0  0  0  0  0  0  0
  -36.9585    3.9833  -43.2611 C   0  0  0  0  0  0  0  0  0  0  0  0
  -36.6643    5.3993  -42.7602 C   0  0  0  0  0  0  0  0  0  0  0  0
  -35.2655    5.4784  -42.3165 N   0  0  0  0  0  0  0  0  0  0  0  0
  -34.3479    5.1501  -43.4164 C   0  0  0  0  0  0  0  0  0  0  0  0
  -34.6421    3.7341  -43.9173 C   0  0  0  0  0  0  0  0  0  0  0  0
  -34.9153    7.0205  -41.6658 X   0  0  0  0  0  0  0  0  0  0  0  0
  1  2  1  0  0  0  0
  2  3  2  0  0  0  0
  2  7  1  0  0  0  0
  3  4  1  0  0  0  0
  4  5  2  0  0  0  0
  5  6  1  0  0  0  0
  6  7  2  0  0  0  0
  7  8  1  0  0  0  0
  8  9  1  0  0  0  0
  8 13  1  0  0  0  0
  9 10  1  0  0  0  0
 10 11  1  0  0  0  0
 11 12  1  0  0  0  0
 11 14  1  0  0  0  0
 12 13  1  0  0  0  0
M  END
> <Index>
8577

> <PropertyFieldDistance>
nan

$$$$
7968384
BBcorina  12272117083D 1   1.00000     0.00000 
CORINA 4.3.0 0026  30.10.2019
 13 13  0  0  0  0  0  0  0  0999 V2000
  -37.8672    8.7012  -39.0482 C   0  0  0  0  0  0  0  0  0  0  0  0
  -36.5707    9.3171  -39.3609 N   0  0  0  0  0  0  0  0  0  0  0  0
  -36.0990   10.1466  -38.2442 C   0  0  0  0  0  0  0  0  0  0  0  0
  -35.5752    8.2970  -39.7163 C   0  0  0  0  0  0  0  0  0  0  0  0
  -35.9828    7.6214  -41.0271 C   0  0  0  0  0  0  0  0  0  0  0  0
  -34.9460    6.5589  -41.3971 C   0  0  0  0  0  0  0  0  0  0  0  0
  -35.3535    5.8833  -42.7079 C   0  0  0  0  0  0  0  0  0  0  0  0
  -36.6585    5.1099  -42.5008 C   0  0  0  0  0  0  0  0  0  0  0  0
  -37.0291    4.3869  -43.7977 C   0  0  0  0  0  0  0  0  0  0  0  0
  -35.9480    3.4664  -44.1723 N   0  0  0  0  0  0  0  0  0  0  0  0
  -34.6958    4.1916  -44.4226 C   0  0  0  0  0  0  0  0  0  0  0  0
  -34.2559    4.9088  -43.1442 C   0  0  0  0  0  0  0  0  0  0  0  0
  -36.3899    2.5211  -45.5270 X   0  0  0  0  0  0  0  0  0  0  0  0
  1  2  1  0  0  0  0
  2  3  1  0  0  0  0
  2  4  1  0  0  0  0
  4  5  1  0  0  0  0
  5  6  1  0  0  0  0
  6  7  1  0  0  0  0
  7  8  1  0  0  0  0
  7 12  1  0  0  0  0
  8  9  1  0  0  0  0
  9 10  1  0  0  0  0
 10 11  1  0  0  0  0
 10 13  1  0  0  0  0
 11 12  1  0  0  0  0
M  END
> <Index>
8590

> <PropertyFieldDistance>
nan

$$$$
10969302
BBcorina  12272117083D 1   1.00000     0.00000 
CORINA 4.3.0 0026  30.10.2019
 15 16  0  0  0  0  0  0  0  0999 V2000
  -38.4627    3.9666  -43.6161 C   0  0  0  0  0  0  0  0  0  0  0  0
  -36.9965    4.0173  -43.1815 C   0  0  0  0  0  0  0  0  0  0  0  0
  -36.6309    5.4493  -42.7839 C   0  0  0  0  0  0  0  0  0  0  0  0
  -35.2122    5.5026  -42.4046 N   0  0  0  0  0  0  0  0  0  0  0  0
  -34.3556    5.0724  -43.5185 C   0  0  0  0  0  0  0  0  0  0  0  0
  -34.7212    3.6403  -43.9161 C   0  0  0  0  0  0  0  0  0  0  0  0
  -36.1399    3.5871  -44.2955 N   0  0  0  0  0  0  0  0  0  0  0  0
  -36.5114    2.2427  -44.7565 C   0  0  0  0  0  0  0  0  0  0  0  0
  -35.7881    1.9348  -46.0422 C   0  0  0  0  0  0  0  0  0  0  0  0
  -34.5463    1.3284  -46.0085 C   0  0  0  0  0  0  0  0  0  0  0  0
  -33.8830    1.0456  -47.1879 C   0  0  0  0  0  0  0  0  0  0  0  0
  -34.4614    1.3693  -48.4009 C   0  0  0  0  0  0  0  0  0  0  0  0
  -35.7031    1.9758  -48.4347 C   0  0  0  0  0  0  0  0  0  0  0  0
  -36.3688    2.2538  -47.2555 C   0  0  0  0  0  0  0  0  0  0  0  0
  -34.7798    7.0675  -41.8678 X   0  0  0  0  0  0  0  0  0  0  0  0
  1  2  1  0  0  0  0
  2  3  1  0  0  0  0
  2  7  1  0  0  0  0
  3  4  1  0  0  0  0
  4  5  1  0  0  0  0
  4 15  1  0  0  0  0
  5  6  1  0  0  0  0
  6  7  1  0  0  0  0
  7  8  1  0  0  0  0
  8  9  1  0  0  0  0
  9 10  2  0  0  0  0
  9 14  1  0  0  0  0
 10 11  1  0  0  0  0
 11 12  2  0  0  0  0
 12 13  1  0  0  0  0
 13 14  2  0  0  0  0
M  END
> <Index>
8591

> <PropertyFieldDistance>
nan

$$$$
7787084
BBcorina  12272117083D 1   1.00000     0.00000 
CORINA 4.3.0 0026  30.10.2019
 14 15  0  0  0  0  0  0  0  0999 V2000
  -35.4003   -0.2722  -47.1779 C   0  0  0  0  0  0  0  0  0  0  0  0
  -36.1359    0.8456  -46.4849 C   0  0  0  0  0  0  0  0  0  0  0  0
  -35.6085    1.5400  -45.4924 N   0  0  0  0  0  0  0  0  0  0  0  0
  -36.3423    2.4775  -44.9780 C   0  0  0  0  0  0  0  0  0  0  0  0
  -37.8508    2.5491  -45.7794 S   0  0  0  0  0  0  0  0  0  0  0  0
  -37.3718    1.2138  -46.8239 C   0  0  0  0  0  0  0  0  0  0  0  0
  -38.2102    0.5989  -47.9148 C   0  0  0  0  0  0  0  0  0  0  0  0
  -35.9572    3.3052  -43.9350 N   0  0  0  0  0  0  0  0  0  0  0  0
  -37.0246    4.2570  -43.5964 C   0  0  0  0  0  0  0  0  0  0  0  0
  -36.5921    5.0969  -42.3922 C   0  0  0  0  0  0  0  0  0  0  0  0
  -35.3437    5.8025  -42.7133 N   0  0  0  0  0  0  0  0  0  0  0  0
  -34.2764    4.8507  -43.0520 C   0  0  0  0  0  0  0  0  0  0  0  0
  -34.7087    4.0108  -44.2561 C   0  0  0  0  0  0  0  0  0  0  0  0
  -34.8685    6.8236  -41.4266 X   0  0  0  0  0  0  0  0  0  0  0  0
  1  2  1  0  0  0  0
  2  3  1  0  0  0  0
  2  6  2  0  0  0  0
  3  4  2  0  0  0  0
  4  5  1  0  0  0  0
  4  8  1  0  0  0  0
  5  6  1  0  0  0  0
  6  7  1  0  0  0  0
  8  9  1  0  0  0  0
  8 13  1  0  0  0  0
  9 10  1  0  0  0  0
 10 11  1  0  0  0  0
 11 12  1  0  0  0  0
 11 14  1  0  0  0  0
 12 13  1  0  0  0  0
M  END
> <Index>
8592

> <PropertyFieldDistance>
nan

$$$$
16915360
BBcorina  12272117083D 1   1.00000     0.00000 
CORINA 4.3.0 0026  30.10.2019
 10 10  0  0  0  0  0  0  0  0999 V2000
  -36.4860    4.1530  -41.4536 O   0  0  0  0  0  0  0  0  0  0  0  0
  -36.6587    5.1099  -42.5007 C   0  0  0  0  0  0  0  0  0  0  0  0
  -37.0290    4.3869  -43.7977 C   0  0  0  0  0  0  0  0  0  0  0  0
  -35.9480    3.4664  -44.1723 N   0  0  0  0  0  0  0  0  0  0  0  0
  -34.6958    4.1917  -44.4226 C   0  0  0  0  0  0  0  0  0  0  0  0
  -34.2559    4.9088  -43.1443 C   0  0  0  0  0  0  0  0  0  0  0  0
  -33.0481    5.6309  -43.3931 O   0  0  0  0  0  0  0  0  0  0  0  0
  -35.3534    5.8832  -42.7080 C   0  0  0  0  0  0  0  0  0  0  0  0
  -34.9726    6.5143  -41.4837 O   0  0  0  0  0  0  0  0  0  0  0  0
  -36.3899    2.5210  -45.5270 X   0  0  0  0  0  0  0  0  0  0  0  0
  1  2  1  0  0  0  0
  2  3  1  0  0  0  0
  2  8  1  0  0  0  0
  3  4  1  0  0  0  0
  4  5  1  0  0  0  0
  4 10  1  0  0  0  0
  5  6  1  0  0  0  0
  6  7  1  0  0  0  0
  6  8  1  0  0  0  0
  8  9  1  0  0  0  0
M  END
> <Index>
8597

> <PropertyFieldDistance>
nan

$$$$
12112236
BBcorina  12272117083D 1   1.00000     0.00000 
CORINA 4.3.0 0026  30.10.2019
 13 14  0  0  0  0  0  0  0  0999 V2000
  -35.9479    3.4664  -44.1722 N   0  0  0  0  0  0  0  0  0  0  0  0
  -37.0290    4.3869  -43.7978 C   0  0  0  0  0  0  0  0  0  0  0  0
  -36.6587    5.1099  -42.5007 C   0  0  0  0  0  0  0  0  0  0  0  0
  -35.3534    5.8832  -42.7080 C   0  0  0  0  0  0  0  0  0  0  0  0
  -34.2558    4.9088  -43.1443 C   0  0  0  0  0  0  0  0  0  0  0  0
  -34.6958    4.1916  -44.4227 C   0  0  0  0  0  0  0  0  0  0  0  0
  -34.9632    6.5300  -41.4528 N   0  0  0  0  0  0  0  0  0  0  0  0
  -34.7921    7.9773  -41.2534 C   0  0  0  0  0  0  0  0  0  0  0  0
  -34.3843    8.0981  -39.7725 C   0  0  0  0  0  0  0  0  0  0  0  0
  -34.3685    6.7208  -39.2976 O   0  0  0  0  0  0  0  0  0  0  0  0
  -34.7094    5.9003  -40.2975 C   0  0  0  0  0  0  0  0  0  0  0  0
  -34.7791    4.6938  -40.1708 O   0  0  0  0  0  0  0  0  0  0  0  0
  -36.3897    2.5209  -45.5268 X   0  0  0  0  0  0  0  0  0  0  0  0
  1  2  1  0  0  0  0
  1  6  1  0  0  0  0
  1 13  1  0  0  0  0
  2  3  1  0  0  0  0
  3  4  1  0  0  0  0
  4  5  1  0  0  0  0
  4  7  1  0  0  0  0
  5  6  1  0  0  0  0
  7  8  1  0  0  0  0
  7 11  1  0  0  0  0
  8  9  1  0  0  0  0
  9 10  1  0  0  0  0
 10 11  1  0  0  0  0
 11 12  2  0  0  0  0
M  END
> <Index>
8598

> <PropertyFieldDistance>
nan

$$$$
13766886
BBcorina  12272117083D 1   1.00000     0.00000 
CORINA 4.3.0 0026  30.10.2019
 11 11  0  0  0  0  0  0  0  0999 V2000
  -40.6877    2.5124  -46.3699 C   0  0  0  0  0  0  0  0  0  0  0  0
  -40.1496    2.7602  -45.0442 O   0  0  0  0  0  0  0  0  0  0  0  0
  -38.9850    3.4239  -44.9735 C   0  0  0  0  0  0  0  0  0  0  0  0
  -38.4334    3.7857  -45.9858 O   0  0  0  0  0  0  0  0  0  0  0  0
  -38.3655    3.7175  -43.6315 C   0  0  0  0  0  0  0  0  0  0  0  0
  -37.0530    4.4782  -43.8312 C   0  0  0  0  0  0  0  0  0  0  0  0
  -36.4385    4.8666  -42.4634 C   0  0  0  0  0  0  0  0  0  0  0  0
  -34.9374    5.0165  -42.8253 C   0  0  0  0  0  0  0  0  0  0  0  0
  -34.7234    3.9144  -43.8840 C   0  0  0  0  0  0  0  0  0  0  0  0
  -36.0427    3.6040  -44.4644 N   0  0  0  0  0  0  0  0  0  0  0  0
  -36.0299    3.8118  -46.1617 X   0  0  0  0  0  0  0  0  0  0  0  0
  1  2  1  0  0  0  0
  2  3  1  0  0  0  0
  3  4  2  0  0  0  0
  3  5  1  0  0  0  0
  5  6  1  0  0  0  0
  6  7  1  0  0  0  0
  6 10  1  0  0  0  0
  7  8  1  0  0  0  0
  8  9  1  0  0  0  0
  9 10  1  0  0  0  0
 10 11  1  0  0  0  0
M  END
> <Index>
8599

> <PropertyFieldDistance>
nan

$$$$
7044096
BBcorina  12272117083D 1   1.00000     0.00000 
CORINA 4.3.0 0026  30.10.2019
 12 13  0  0  0  0  0  0  0  0999 V2000
  -36.0054    3.6168  -44.3795 N   0  0  0  0  0  0  0  0  0  0  0  0
  -37.0063    4.4929  -43.7548 C   0  0  0  0  0  0  0  0  0  0  0  0
  -36.5675    4.8274  -42.3273 C   0  0  0  0  0  0  0  0  0  0  0  0
  -35.2505    5.4785  -42.3623 N   0  0  0  0  0  0  0  0  0  0  0  0
  -34.2495    4.6025  -42.9869 C   0  0  0  0  0  0  0  0  0  0  0  0
  -34.6883    4.2678  -44.4146 C   0  0  0  0  0  0  0  0  0  0  0  0
  -34.8487    5.8639  -41.0819 C   0  0  0  0  0  0  0  0  0  0  0  0
  -33.6956    6.4811  -40.7859 C   0  0  0  0  0  0  0  0  0  0  0  0
  -33.5188    6.7647  -39.4409 C   0  0  0  0  0  0  0  0  0  0  0  0
  -34.5192    6.3816  -38.6488 C   0  0  0  0  0  0  0  0  0  0  0  0
  -35.7804    5.6213  -39.6100 S   0  0  0  0  0  0  0  0  0  0  0  0
  -36.4974    3.1448  -45.9478 X   0  0  0  0  0  0  0  0  0  0  0  0
  1  2  1  0  0  0  0
  1  6  1  0  0  0  0
  1 12  1  0  0  0  0
  2  3  1  0  0  0  0
  3  4  1  0  0  0  0
  4  5  1  0  0  0  0
  4  7  1  0  0  0  0
  5  6  1  0  0  0  0
  7  8  2  0  0  0  0
  7 11  1  0  0  0  0
  8  9  1  0  0  0  0
  9 10  2  0  0  0  0
 10 11  1  0  0  0  0
M  END
> <Index>
8607

> <PropertyFieldDistance>
nan

$$$$
13910000
BBcorina  12272117083D 1   1.00000     0.00000 
CORINA 4.3.0 0026  30.10.2019
 12 12  0  0  0  0  0  0  0  0999 V2000
  -35.6195    6.7342  -43.6989 C   0  0  0  0  0  0  0  0  0  0  0  0
  -35.7983    5.9858  -42.3764 C   0  0  0  0  0  0  0  0  0  0  0  0
  -36.0219    6.9875  -41.2418 C   0  0  0  0  0  0  0  0  0  0  0  0
  -37.0116    5.0388  -42.4776 C   0  0  0  0  0  0  0  0  0  0  0  0
  -37.0673    4.3601  -43.7705 C   0  0  0  0  0  0  0  0  0  0  0  0
  -35.8707    3.5221  -44.0143 N   0  0  0  0  0  0  0  0  0  0  0  0
  -34.7754    4.3459  -44.4648 C   0  0  0  0  0  0  0  0  0  0  0  0
  -33.8623    4.7968  -43.3105 C   0  0  0  0  0  0  0  0  0  0  0  0
  -33.0198    5.9836  -43.7823 C   0  0  0  0  0  0  0  0  0  0  0  0
  -32.9248    3.6446  -42.9439 C   0  0  0  0  0  0  0  0  0  0  0  0
  -34.6207    5.1989  -42.1025 N   0  0  0  0  0  0  0  0  0  0  0  0
  -36.2099    2.2829  -45.1429 X   0  0  0  0  0  0  0  0  0  0  0  0
  1  2  1  0  0  0  0
  2  3  1  0  0  0  0
  2  4  1  0  0  0  0
  2 11  1  0  0  0  0
  4  5  1  0  0  0  0
  5  6  1  0  0  0  0
  6  7  1  0  0  0  0
  6 12  1  0  0  0  0
  7  8  1  0  0  0  0
  8  9  1  0  0  0  0
  8 10  1  0  0  0  0
  8 11  1  0  0  0  0
M  END
> <Index>
8611

> <PropertyFieldDistance>
nan

$$$$
6726380
BBcorina  12272117083D 1   1.00000     0.00000 
CORINA 4.3.0 0026  30.10.2019
 12 13  0  0  0  0  0  0  0  0999 V2000
  -36.0720    3.5172  -44.3643 N   0  0  0  0  0  0  0  0  0  0  0  0
  -36.9834    4.5796  -43.8890 C   0  0  0  0  0  0  0  0  0  0  0  0
  -36.4686    4.7967  -42.4548 C   0  0  0  0  0  0  0  0  0  0  0  0
  -34.9547    4.8196  -42.6834 C   0  0  0  0  0  0  0  0  0  0  0  0
  -34.7337    3.9695  -43.9348 C   0  0  0  0  0  0  0  0  0  0  0  0
  -34.4692    6.2665  -42.9082 C   0  0  0  0  0  0  0  0  0  0  0  0
  -34.2792    6.9623  -41.5902 C   0  0  0  0  0  0  0  0  0  0  0  0
  -32.8341    6.8079  -41.1034 C   0  0  0  0  0  0  0  0  0  0  0  0
  -32.5231    5.5734  -40.3791 C   0  0  0  0  0  0  0  0  0  0  0  0
  -32.8015    4.3585  -41.3045 C   0  0  0  0  0  0  0  0  0  0  0  0
  -34.2756    4.1188  -41.4818 C   0  0  0  0  0  0  0  0  0  0  0  0
  -36.1488    3.3596  -46.0653 X   0  0  0  0  0  0  0  0  0  0  0  0
  1  2  1  0  0  0  0
  1  5  1  0  0  0  0
  1 12  1  0  0  0  0
  2  3  1  0  0  0  0
  3  4  1  0  0  0  0
  4  5  1  0  0  0  0
  4  6  1  0  0  0  0
  4 11  1  0  0  0  0
  6  7  1  0  0  0  0
  7  8  1  0  0  0  0
  8  9  1  0  0  0  0
  9 10  1  0  0  0  0
 10 11  1  0  0  0  0
M  END
> <Index>
8612

> <PropertyFieldDistance>
nan

$$$$
17633450
BBcorina  12272117083D 1   1.00000     0.00000 
CORINA 4.3.0 0026  30.10.2019
 11 12  0  0  0  0  0  0  0  0999 V2000
  -35.9710    3.4588  -44.1678 N   0  0  0  0  0  0  0  0  0  0  0  0
  -36.9786    4.4834  -43.8430 C   0  0  0  0  0  0  0  0  0  0  0  0
  -36.6559    5.0258  -42.4546 C   0  0  0  0  0  0  0  0  0  0  0  0
  -35.1969    5.4245  -42.3569 C   0  0  0  0  0  0  0  0  0  0  0  0
  -34.3083    4.9941  -43.2023 C   0  0  0  0  0  0  0  0  0  0  0  0
  -32.8374    5.3314  -43.0906 C   0  0  0  0  0  0  0  0  0  0  0  0
  -32.6133    6.5525  -42.2065 C   0  0  0  0  0  0  0  0  0  0  0  0
  -33.3685    6.3195  -40.8907 C   0  0  0  0  0  0  0  0  0  0  0  0
  -34.8602    6.3430  -41.2031 C   0  0  0  0  0  0  0  0  0  0  0  0
  -34.6734    4.1015  -44.3702 C   0  0  0  0  0  0  0  0  0  0  0  0
  -36.4324    2.5616  -45.5484 X   0  0  0  0  0  0  0  0  0  0  0  0
  1  2  1  0  0  0  0
  1 10  1  0  0  0  0
  1 11  1  0  0  0  0
  2  3  1  0  0  0  0
  3  4  1  0  0  0  0
  4  5  2  0  0  0  0
  4  9  1  0  0  0  0
  5  6  1  0  0  0  0
  5 10  1  0  0  0  0
  6  7  1  0  0  0  0
  7  8  1  0  0  0  0
  8  9  1  0  0  0  0
M  END
> <Index>
8619

> <PropertyFieldDistance>
nan

$$$$
15555486
BBcorina  12272117083D 1   1.00000     0.00000 
CORINA 4.3.0 0026  30.10.2019
 11 11  0  0  0  0  0  0  0  0999 V2000
  -33.6460    8.1975  -40.3827 C   0  0  0  0  0  0  0  0  0  0  0  0
  -33.8558    7.1616  -41.3783 O   0  0  0  0  0  0  0  0  0  0  0  0
  -35.1050    6.6682  -41.4942 C   0  0  0  0  0  0  0  0  0  0  0  0
  -35.9943    7.0922  -40.7825 O   0  0  0  0  0  0  0  0  0  0  0  0
  -35.3914    5.6176  -42.4810 C   0  0  0  0  0  0  0  0  0  0  0  0
  -36.6237    5.1530  -42.5726 C   0  0  0  0  0  0  0  0  0  0  0  0
  -37.0229    4.0806  -43.5452 C   0  0  0  0  0  0  0  0  0  0  0  0
  -36.0026    3.9381  -44.5915 N   0  0  0  0  0  0  0  0  0  0  0  0
  -34.6698    3.7814  -43.9864 C   0  0  0  0  0  0  0  0  0  0  0  0
  -34.2682    5.1106  -43.3421 C   0  0  0  0  0  0  0  0  0  0  0  0
  -36.0358    5.2688  -45.6649 X   0  0  0  0  0  0  0  0  0  0  0  0
  1  2  1  0  0  0  0
  2  3  1  0  0  0  0
  3  4  2  0  0  0  0
  3  5  1  0  0  0  0
  5  6  2  0  0  0  0
  5 10  1  0  0  0  0
  6  7  1  0  0  0  0
  7  8  1  0  0  0  0
  8  9  1  0  0  0  0
  8 11  1  0  0  0  0
  9 10  1  0  0  0  0
M  END
> <Index>
8623

> <PropertyFieldDistance>
nan

$$$$
7043706
BBcorina  12272117083D 1   1.00000     0.00000 
CORINA 4.3.0 0026  30.10.2019
 10 10  0  0  0  0  0  0  0  0999 V2000
  -30.5424    5.4704  -43.9933 C   0  0  0  0  0  0  0  0  0  0  0  0
  -31.8354    4.6970  -43.7261 C   0  0  0  0  0  0  0  0  0  0  0  0
  -32.9630    5.6820  -43.4115 C   0  0  0  0  0  0  0  0  0  0  0  0
  -34.2559    4.9088  -43.1443 C   0  0  0  0  0  0  0  0  0  0  0  0
  -35.3534    5.8832  -42.7079 C   0  0  0  0  0  0  0  0  0  0  0  0
  -36.6587    5.1099  -42.5007 C   0  0  0  0  0  0  0  0  0  0  0  0
  -37.0290    4.3869  -43.7977 C   0  0  0  0  0  0  0  0  0  0  0  0
  -35.9480    3.4664  -44.1723 N   0  0  0  0  0  0  0  0  0  0  0  0
  -34.6958    4.1916  -44.4226 C   0  0  0  0  0  0  0  0  0  0  0  0
  -36.3899    2.5211  -45.5270 X   0  0  0  0  0  0  0  0  0  0  0  0
  1  2  1  0  0  0  0
  2  3  1  0  0  0  0
  3  4  1  0  0  0  0
  4  5  1  0  0  0  0
  4  9  1  0  0  0  0
  5  6  1  0  0  0  0
  6  7  1  0  0  0  0
  7  8  1  0  0  0  0
  8  9  1  0  0  0  0
  8 10  1  0  0  0  0
M  END
> <Index>
8626

> <PropertyFieldDistance>
nan

$$$$
11761242
BBcorina  12272117083D 1   1.00000     0.00000 
CORINA 4.3.0 0026  30.10.2019
 12 12  0  0  0  0  0  0  0  0999 V2000
  -36.1804    0.8152  -46.8364 C   0  0  0  0  0  0  0  0  0  0  0  0
  -35.6112    1.6046  -45.6558 C   0  0  0  0  0  0  0  0  0  0  0  0
  -36.6562    2.6066  -45.1610 C   0  0  0  0  0  0  0  0  0  0  0  0
  -37.9117    1.8553  -44.7141 C   0  0  0  0  0  0  0  0  0  0  0  0
  -37.0148    3.5706  -46.2938 C   0  0  0  0  0  0  0  0  0  0  0  0
  -36.1096    3.3646  -44.0276 N   0  0  0  0  0  0  0  0  0  0  0  0
  -37.0880    4.3391  -43.5250 C   0  0  0  0  0  0  0  0  0  0  0  0
  -36.5117    5.0503  -42.2983 C   0  0  0  0  0  0  0  0  0  0  0  0
  -35.2532    5.7139  -42.6664 N   0  0  0  0  0  0  0  0  0  0  0  0
  -34.2748    4.7394  -43.1690 C   0  0  0  0  0  0  0  0  0  0  0  0
  -34.8511    4.0282  -44.3956 C   0  0  0  0  0  0  0  0  0  0  0  0
  -34.6170    6.5962  -41.3469 X   0  0  0  0  0  0  0  0  0  0  0  0
  1  2  1  0  0  0  0
  2  3  1  0  0  0  0
  3  4  1  0  0  0  0
  3  5  1  0  0  0  0
  3  6  1  0  0  0  0
  6  7  1  0  0  0  0
  6 11  1  0  0  0  0
  7  8  1  0  0  0  0
  8  9  1  0  0  0  0
  9 10  1  0  0  0  0
  9 12  1  0  0  0  0
 10 11  1  0  0  0  0
M  END
> <Index>
8633

> <PropertyFieldDistance>
nan

$$$$
12630936
BBcorina  12272117083D 1   1.00000     0.00000 
CORINA 4.3.0 0026  30.10.2019
 11 11  0  0  0  0  0  0  0  0999 V2000
  -33.1835    6.6241  -44.4222 F   0  0  0  0  0  0  0  0  0  0  0  0
  -32.9630    5.6821  -43.4117 C   0  0  0  0  0  0  0  0  0  0  0  0
  -32.5614    6.3373  -42.2427 F   0  0  0  0  0  0  0  0  0  0  0  0
  -31.9619    4.7917  -43.8145 F   0  0  0  0  0  0  0  0  0  0  0  0
  -34.2558    4.9088  -43.1443 C   0  0  0  0  0  0  0  0  0  0  0  0
  -35.3534    5.8832  -42.7080 C   0  0  0  0  0  0  0  0  0  0  0  0
  -36.6587    5.1099  -42.5008 C   0  0  0  0  0  0  0  0  0  0  0  0
  -37.0290    4.3869  -43.7977 C   0  0  0  0  0  0  0  0  0  0  0  0
  -35.9480    3.4665  -44.1722 N   0  0  0  0  0  0  0  0  0  0  0  0
  -34.6958    4.1916  -44.4227 C   0  0  0  0  0  0  0  0  0  0  0  0
  -36.3902    2.5211  -45.5268 X   0  0  0  0  0  0  0  0  0  0  0  0
  1  2  1  0  0  0  0
  2  3  1  0  0  0  0
  2  4  1  0  0  0  0
  2  5  1  0  0  0  0
  5  6  1  0  0  0  0
  5 10  1  0  0  0  0
  6  7  1  0  0  0  0
  7  8  1  0  0  0  0
  8  9  1  0  0  0  0
  9 10  1  0  0  0  0
  9 11  1  0  0  0  0
M  END
> <Index>
8635

> <PropertyFieldDistance>
nan

$$$$
16516524
BBcorina  12272117083D 1   1.00000     0.00000 
CORINA 4.3.0 0026  30.10.2019
 12 12  0  0  0  0  0  0  0  0999 V2000
  -34.8675    1.0096  -44.4587 C   0  0  0  0  0  0  0  0  0  0  0  0
  -35.6109    1.6049  -45.6561 C   0  0  0  0  0  0  0  0  0  0  0  0
  -36.3056    0.4850  -46.4332 C   0  0  0  0  0  0  0  0  0  0  0  0
  -34.6144    2.3188  -46.5715 C   0  0  0  0  0  0  0  0  0  0  0  0
  -36.6563    2.6064  -45.1608 C   0  0  0  0  0  0  0  0  0  0  0  0
  -36.1096    3.3645  -44.0275 N   0  0  0  0  0  0  0  0  0  0  0  0
  -37.0881    4.3391  -43.5248 C   0  0  0  0  0  0  0  0  0  0  0  0
  -36.5117    5.0504  -42.2984 C   0  0  0  0  0  0  0  0  0  0  0  0
  -35.2532    5.7140  -42.6665 N   0  0  0  0  0  0  0  0  0  0  0  0
  -34.2749    4.7393  -43.1691 C   0  0  0  0  0  0  0  0  0  0  0  0
  -34.8511    4.0280  -44.3956 C   0  0  0  0  0  0  0  0  0  0  0  0
  -34.6170    6.5964  -41.3473 X   0  0  0  0  0  0  0  0  0  0  0  0
  1  2  1  0  0  0  0
  2  3  1  0  0  0  0
  2  4  1  0  0  0  0
  2  5  1  0  0  0  0
  5  6  1  0  0  0  0
  6  7  1  0  0  0  0
  6 11  1  0  0  0  0
  7  8  1  0  0  0  0
  8  9  1  0  0  0  0
  9 10  1  0  0  0  0
  9 12  1  0  0  0  0
 10 11  1  0  0  0  0
M  END
> <Index>
8638

> <PropertyFieldDistance>
nan

$$$$
13586638
BBcorina  12272117083D 1   1.00000     0.00000 
CORINA 4.3.0 0026  30.10.2019
 10 10  0  0  0  0  0  0  0  0999 V2000
  -35.9007    3.5515  -43.9394 N   0  0  0  0  0  0  0  0  0  0  0  0
  -36.9762    4.5612  -43.8401 C   0  0  0  0  0  0  0  0  0  0  0  0
  -37.2036    4.8635  -42.3359 C   0  0  0  0  0  0  0  0  0  0  0  0
  -35.8857    5.3283  -41.7247 C   0  0  0  0  0  0  0  0  0  0  0  0
  -35.4100    6.5124  -42.4442 N   0  0  0  0  0  0  0  0  0  0  0  0
  -34.4079    6.3536  -43.3369 C   0  0  0  0  0  0  0  0  0  0  0  0
  -33.9765    7.2868  -43.9803 O   0  0  0  0  0  0  0  0  0  0  0  0
  -33.8486    4.9612  -43.4914 C   0  0  0  0  0  0  0  0  0  0  0  0
  -34.6581    4.1262  -44.4309 C   0  0  0  0  0  0  0  0  0  0  0  0
  -35.6606    2.7624  -42.4415 X   0  0  0  0  0  0  0  0  0  0  0  0
  1  2  1  0  0  0  0
  1  9  1  0  0  0  0
  1 10  1  0  0  0  0
  2  3  1  0  0  0  0
  3  4  1  0  0  0  0
  4  5  1  0  0  0  0
  5  6  1  0  0  0  0
  6  7  2  0  0  0  0
  6  8  1  0  0  0  0
  8  9  1  0  0  0  0
M  END
> <Index>
8639

> <PropertyFieldDistance>
nan

$$$$
9297000
BBcorina  12272117083D 1   1.00000     0.00000 
CORINA 4.3.0 0026  30.10.2019
 10 10  0  0  0  0  0  0  0  0999 V2000
  -34.9268    6.4322  -41.2873 C   0  0  0  0  0  0  0  0  0  0  0  0
  -35.2462    5.1675  -42.0869 C   0  0  0  0  0  0  0  0  0  0  0  0
  -36.6793    5.2476  -42.6202 C   0  0  0  0  0  0  0  0  0  0  0  0
  -36.9723    4.0086  -43.4695 C   0  0  0  0  0  0  0  0  0  0  0  0
  -36.0192    3.9414  -44.5845 N   0  0  0  0  0  0  0  0  0  0  0  0
  -34.6396    3.8164  -44.0970 C   0  0  0  0  0  0  0  0  0  0  0  0
  -34.2769    5.0495  -43.2665 C   0  0  0  0  0  0  0  0  0  0  0  0
  -34.3711    6.1946  -44.0647 F   0  0  0  0  0  0  0  0  0  0  0  0
  -32.9695    4.9208  -42.7856 F   0  0  0  0  0  0  0  0  0  0  0  0
  -36.4111    2.6622  -45.6495 X   0  0  0  0  0  0  0  0  0  0  0  0
  1  2  1  0  0  0  0
  2  3  1  0  0  0  0
  2  7  1  0  0  0  0
  3  4  1  0  0  0  0
  4  5  1  0  0  0  0
  5  6  1  0  0  0  0
  5 10  1  0  0  0  0
  6  7  1  0  0  0  0
  7  8  1  0  0  0  0
  7  9  1  0  0  0  0
M  END
> <Index>
8646

> <PropertyFieldDistance>
nan

$$$$
6388646
BBcorina  12272117083D 1   1.00000     0.00000 
CORINA 4.3.0 0026  30.10.2019
 13 13  0  0  0  0  0  0  0  0999 V2000
  -36.4015    2.5694  -46.0461 C   0  0  0  0  0  0  0  0  0  0  0  0
  -36.1342    2.0100  -44.6473 C   0  0  0  0  0  0  0  0  0  0  0  0
  -34.9312    1.0659  -44.6970 C   0  0  0  0  0  0  0  0  0  0  0  0
  -35.8507    3.1163  -43.7234 N   0  0  0  0  0  0  0  0  0  0  0  0
  -36.9721    4.0649  -43.6778 C   0  0  0  0  0  0  0  0  0  0  0  0
  -36.6719    5.1565  -42.6478 C   0  0  0  0  0  0  0  0  0  0  0  0
  -35.4227    5.8394  -43.0117 N   0  0  0  0  0  0  0  0  0  0  0  0
  -34.3012    4.8908  -43.0573 C   0  0  0  0  0  0  0  0  0  0  0  0
  -34.6014    3.7993  -44.0873 C   0  0  0  0  0  0  0  0  0  0  0  0
  -37.3467    1.2539  -44.1686 C   0  0  0  0  0  0  0  0  0  0  0  0
  -38.1333    0.7983  -44.9715 O   0  0  0  0  0  0  0  0  0  0  0  0
  -37.5570    1.0839  -42.8482 N   0  0  0  0  0  0  0  0  0  0  0  0
  -35.0926    7.1273  -41.9362 X   0  0  0  0  0  0  0  0  0  0  0  0
  1  2  1  0  0  0  0
  2  3  1  0  0  0  0
  2  4  1  0  0  0  0
  2 10  1  0  0  0  0
  4  5  1  0  0  0  0
  4  9  1  0  0  0  0
  5  6  1  0  0  0  0
  6  7  1  0  0  0  0
  7  8  1  0  0  0  0
  7 13  1  0  0  0  0
  8  9  1  0  0  0  0
 10 11  2  0  0  0  0
 10 12  1  0  0  0  0
M  END
> <Index>
8652

> <PropertyFieldDistance>
nan

$$$$
12851702
BBcorina  12272117083D 1   1.00000     0.00000 
CORINA 4.3.0 0026  30.10.2019
 11 11  0  0  0  0  0  0  0  0999 V2000
  -31.9049    4.7289  -43.9708 C   0  0  0  0  0  0  0  0  0  0  0  0
  -32.9630    5.6821  -43.4116 C   0  0  0  0  0  0  0  0  0  0  0  0
  -33.2346    6.7945  -44.4264 C   0  0  0  0  0  0  0  0  0  0  0  0
  -32.4901    6.2557  -42.1912 O   0  0  0  0  0  0  0  0  0  0  0  0
  -34.2558    4.9088  -43.1443 C   0  0  0  0  0  0  0  0  0  0  0  0
  -35.3534    5.8832  -42.7080 C   0  0  0  0  0  0  0  0  0  0  0  0
  -36.6587    5.1099  -42.5007 C   0  0  0  0  0  0  0  0  0  0  0  0
  -37.0290    4.3869  -43.7977 C   0  0  0  0  0  0  0  0  0  0  0  0
  -35.9479    3.4664  -44.1723 N   0  0  0  0  0  0  0  0  0  0  0  0
  -34.6959    4.1916  -44.4227 C   0  0  0  0  0  0  0  0  0  0  0  0
  -36.3898    2.5210  -45.5270 X   0  0  0  0  0  0  0  0  0  0  0  0
  1  2  1  0  0  0  0
  2  3  1  0  0  0  0
  2  4  1  0  0  0  0
  2  5  1  0  0  0  0
  5  6  1  0  0  0  0
  5 10  1  0  0  0  0
  6  7  1  0  0  0  0
  7  8  1  0  0  0  0
  8  9  1  0  0  0  0
  9 10  1  0  0  0  0
  9 11  1  0  0  0  0
M  END
> <Index>
8656

> <PropertyFieldDistance>
nan

$$$$
17840188
BBcorina  12272117083D 1   1.00000     0.00000 
CORINA 4.3.0 0026  30.10.2019
 11 12  0  0  0  0  0  0  0  0999 V2000
  -37.4033    2.6369  -45.8779 N   0  0  0  0  0  0  0  0  0  0  0  0
  -36.2102    2.6726  -45.2521 C   0  0  0  0  0  0  0  0  0  0  0  0
  -35.2786    2.0200  -45.6817 O   0  0  0  0  0  0  0  0  0  0  0  0
  -36.0498    3.4317  -44.1501 N   0  0  0  0  0  0  0  0  0  0  0  0
  -37.0713    4.2798  -43.4992 C   0  0  0  0  0  0  0  0  0  0  0  0
  -36.3610    4.8848  -42.2488 C   0  0  0  0  0  0  0  0  0  0  0  0
  -35.4013    3.6938  -41.8907 C   0  0  0  0  0  0  0  0  0  0  0  0
  -34.8054    3.5851  -43.3400 C   0  0  0  0  0  0  0  0  0  0  0  0
  -34.3739    5.0648  -43.5812 C   0  0  0  0  0  0  0  0  0  0  0  0
  -35.3734    5.8817  -42.8515 N   0  0  0  0  0  0  0  0  0  0  0  0
  -36.1538    6.9798  -43.9046 X   0  0  0  0  0  0  0  0  0  0  0  0
  1  2  1  0  0  0  0
  2  3  2  0  0  0  0
  2  4  1  0  0  0  0
  4  5  1  0  0  0  0
  4  8  1  0  0  0  0
  5  6  1  0  0  0  0
  6  7  1  0  0  0  0
  6 10  1  0  0  0  0
  7  8  1  0  0  0  0
  8  9  1  0  0  0  0
  9 10  1  0  0  0  0
 10 11  1  0  0  0  0
M  END
> <Index>
8661

> <PropertyFieldDistance>
nan

$$$$
10123398
BBcorina  12272117083D 1   1.00000     0.00000 
CORINA 4.3.0 0026  30.10.2019
 10 11  0  0  0  0  0  0  0  0999 V2000
  -36.0190    3.9406  -44.5846 N   0  0  0  0  0  0  0  0  0  0  0  0
  -36.9728    4.0093  -43.4701 C   0  0  0  0  0  0  0  0  0  0  0  0
  -36.6780    5.2477  -42.6199 C   0  0  0  0  0  0  0  0  0  0  0  0
  -36.8120    6.5011  -43.4887 C   0  0  0  0  0  0  0  0  0  0  0  0
  -35.8376    6.4117  -44.6648 C   0  0  0  0  0  0  0  0  0  0  0  0
  -34.4058    6.3020  -44.1368 C   0  0  0  0  0  0  0  0  0  0  0  0
  -34.2782    5.0498  -43.2658 C   0  0  0  0  0  0  0  0  0  0  0  0
  -35.2458    5.1589  -42.0831 C   0  0  0  0  0  0  0  0  0  0  0  0
  -34.6393    3.8163  -44.0974 C   0  0  0  0  0  0  0  0  0  0  0  0
  -36.4109    2.6605  -45.6485 X   0  0  0  0  0  0  0  0  0  0  0  0
  1  2  1  0  0  0  0
  1  9  1  0  0  0  0
  1 10  1  0  0  0  0
  2  3  1  0  0  0  0
  3  4  1  0  0  0  0
  3  8  1  0  0  0  0
  4  5  1  0  0  0  0
  5  6  1  0  0  0  0
  6  7  1  0  0  0  0
  7  8  1  0  0  0  0
  7  9  1  0  0  0  0
M  END
> <Index>
8663

> <PropertyFieldDistance>
nan

$$$$
15729892
BBcorina  12272117083D 1   1.00000     0.00000 
CORINA 4.3.0 0026  30.10.2019
  9  9  0  0  0  0  0  0  0  0999 V2000
  -37.3301    6.7812  -40.7954 C   0  0  0  0  0  0  0  0  0  0  0  0
  -37.6835    6.1408  -42.1392 C   0  0  0  0  0  0  0  0  0  0  0  0
  -36.6101    5.1171  -42.5144 C   0  0  0  0  0  0  0  0  0  0  0  0
  -37.0250    4.3871  -43.7945 C   0  0  0  0  0  0  0  0  0  0  0  0
  -35.9556    3.4605  -44.1936 N   0  0  0  0  0  0  0  0  0  0  0  0
  -34.6940    4.1834  -44.4108 C   0  0  0  0  0  0  0  0  0  0  0  0
  -34.3026    4.9154  -43.1244 C   0  0  0  0  0  0  0  0  0  0  0  0
  -35.3668    5.7882  -42.7358 O   0  0  0  0  0  0  0  0  0  0  0  0
  -36.4018    2.5727  -45.5854 X   0  0  0  0  0  0  0  0  0  0  0  0
  1  2  1  0  0  0  0
  2  3  1  0  0  0  0
  3  4  1  0  0  0  0
  3  8  1  0  0  0  0
  4  5  1  0  0  0  0
  5  6  1  0  0  0  0
  5  9  1  0  0  0  0
  6  7  1  0  0  0  0
  7  8  1  0  0  0  0
M  END
> <Index>
8664

> <PropertyFieldDistance>
nan

$$$$
15160226
BBcorina  12272117083D 1   1.00000     0.00000 
CORINA 4.3.0 0026  30.10.2019
  9  9  0  0  0  0  0  0  0  0999 V2000
  -37.3301    6.7812  -40.7954 C   0  0  0  0  0  0  0  0  0  0  0  0
  -37.6835    6.1408  -42.1392 C   0  0  0  0  0  0  0  0  0  0  0  0
  -36.6101    5.1171  -42.5144 C   0  0  0  0  0  0  0  0  0  0  0  0
  -37.0250    4.3871  -43.7945 C   0  0  0  0  0  0  0  0  0  0  0  0
  -35.9556    3.4605  -44.1936 N   0  0  0  0  0  0  0  0  0  0  0  0
  -34.6940    4.1834  -44.4108 C   0  0  0  0  0  0  0  0  0  0  0  0
  -34.3026    4.9154  -43.1244 C   0  0  0  0  0  0  0  0  0  0  0  0
  -35.3668    5.7882  -42.7358 O   0  0  0  0  0  0  0  0  0  0  0  0
  -36.4018    2.5727  -45.5854 X   0  0  0  0  0  0  0  0  0  0  0  0
  1  2  1  0  0  0  0
  2  3  1  0  0  0  0
  3  4  1  0  0  0  0
  3  8  1  0  0  0  0
  4  5  1  0  0  0  0
  5  6  1  0  0  0  0
  5  9  1  0  0  0  0
  6  7  1  0  0  0  0
  7  8  1  0  0  0  0
M  END
> <Index>
8665

> <PropertyFieldDistance>
nan

$$$$
13450222
BBcorina  12272117083D 1   1.00000     0.00000 
CORINA 4.3.0 0026  30.10.2019
 14 14  0  0  0  0  0  0  0  0999 V2000
  -38.3802    3.6181  -43.1193 C   0  0  0  0  0  0  0  0  0  0  0  0
  -37.0904    4.3372  -43.5195 C   0  0  0  0  0  0  0  0  0  0  0  0
  -36.5102    5.0615  -42.3025 C   0  0  0  0  0  0  0  0  0  0  0  0
  -35.2514    5.7188  -42.6809 N   0  0  0  0  0  0  0  0  0  0  0  0
  -34.2757    4.7370  -43.1746 C   0  0  0  0  0  0  0  0  0  0  0  0
  -34.8558    4.0127  -44.3916 C   0  0  0  0  0  0  0  0  0  0  0  0
  -35.1237    5.0243  -45.5079 C   0  0  0  0  0  0  0  0  0  0  0  0
  -36.1147    3.3555  -44.0132 N   0  0  0  0  0  0  0  0  0  0  0  0
  -36.6649    2.5854  -45.1367 C   0  0  0  0  0  0  0  0  0  0  0  0
  -35.5927    1.6386  -45.6798 C   0  0  0  0  0  0  0  0  0  0  0  0
  -35.0671    0.8780  -44.6298 F   0  0  0  0  0  0  0  0  0  0  0  0
  -36.1618    0.7873  -46.6329 F   0  0  0  0  0  0  0  0  0  0  0  0
  -34.5689    2.3849  -46.2732 F   0  0  0  0  0  0  0  0  0  0  0  0
  -34.6109    6.6152  -41.3732 X   0  0  0  0  0  0  0  0  0  0  0  0
  1  2  1  0  0  0  0
  2  3  1  0  0  0  0
  2  8  1  0  0  0  0
  3  4  1  0  0  0  0
  4  5  1  0  0  0  0
  4 14  1  0  0  0  0
  5  6  1  0  0  0  0
  6  7  1  0  0  0  0
  6  8  1  0  0  0  0
  8  9  1  0  0  0  0
  9 10  1  0  0  0  0
 10 11  1  0  0  0  0
 10 12  1  0  0  0  0
 10 13  1  0  0  0  0
M  END
> <Index>
8668

> <PropertyFieldDistance>
nan

$$$$
14586052
BBcorina  12272117083D 1   1.00000     0.00000 
CORINA 4.3.0 0026  30.10.2019
 11 11  0  0  0  0  0  0  0  0999 V2000
  -35.6722    8.1594  -39.7736 F   0  0  0  0  0  0  0  0  0  0  0  0
  -35.9828    7.6214  -41.0271 C   0  0  0  0  0  0  0  0  0  0  0  0
  -35.9710    8.6388  -41.9872 F   0  0  0  0  0  0  0  0  0  0  0  0
  -34.9460    6.5589  -41.3971 C   0  0  0  0  0  0  0  0  0  0  0  0
  -35.3535    5.8833  -42.7079 C   0  0  0  0  0  0  0  0  0  0  0  0
  -36.6585    5.1099  -42.5008 C   0  0  0  0  0  0  0  0  0  0  0  0
  -37.0291    4.3869  -43.7977 C   0  0  0  0  0  0  0  0  0  0  0  0
  -35.9480    3.4664  -44.1723 N   0  0  0  0  0  0  0  0  0  0  0  0
  -34.6958    4.1916  -44.4226 C   0  0  0  0  0  0  0  0  0  0  0  0
  -34.2559    4.9088  -43.1442 C   0  0  0  0  0  0  0  0  0  0  0  0
  -36.3899    2.5211  -45.5270 X   0  0  0  0  0  0  0  0  0  0  0  0
  1  2  1  0  0  0  0
  2  3  1  0  0  0  0
  2  4  1  0  0  0  0
  4  5  1  0  0  0  0
  5  6  1  0  0  0  0
  5 10  1  0  0  0  0
  6  7  1  0  0  0  0
  7  8  1  0  0  0  0
  8  9  1  0  0  0  0
  8 11  1  0  0  0  0
  9 10  1  0  0  0  0
M  END
> <Index>
8669

> <PropertyFieldDistance>
nan

$$$$
17509958
BBcorina  12272117083D 1   1.00000     0.00000 
CORINA 4.3.0 0026  30.10.2019
  9  9  0  0  0  0  0  0  0  0999 V2000
  -32.9695    4.9208  -42.7856 F   0  0  0  0  0  0  0  0  0  0  0  0
  -34.2770    5.0496  -43.2665 C   0  0  0  0  0  0  0  0  0  0  0  0
  -35.2462    5.1676  -42.0870 C   0  0  0  0  0  0  0  0  0  0  0  0
  -36.6793    5.2476  -42.6202 C   0  0  0  0  0  0  0  0  0  0  0  0
  -37.5748    5.3004  -41.5467 F   0  0  0  0  0  0  0  0  0  0  0  0
  -36.9723    4.0087  -43.4695 C   0  0  0  0  0  0  0  0  0  0  0  0
  -36.0191    3.9414  -44.5845 N   0  0  0  0  0  0  0  0  0  0  0  0
  -34.6396    3.8164  -44.0970 C   0  0  0  0  0  0  0  0  0  0  0  0
  -36.4111    2.6621  -45.6494 X   0  0  0  0  0  0  0  0  0  0  0  0
  1  2  1  0  0  0  0
  2  3  1  0  0  0  0
  2  8  1  0  0  0  0
  3  4  1  0  0  0  0
  4  5  1  0  0  0  0
  4  6  1  0  0  0  0
  6  7  1  0  0  0  0
  7  8  1  0  0  0  0
  7  9  1  0  0  0  0
M  END
> <Index>
8670

> <PropertyFieldDistance>
nan

$$$$
10963960
BBcorina  12272117083D 1   1.00000     0.00000 
CORINA 4.3.0 0026  30.10.2019
 14 14  0  0  0  0  0  0  0  0999 V2000
  -34.2161   -0.2324  -45.1275 C   0  0  0  0  0  0  0  0  0  0  0  0
  -35.2254    0.6851  -44.7013 O   0  0  0  0  0  0  0  0  0  0  0  0
  -35.5861    1.6524  -45.6893 C   0  0  0  0  0  0  0  0  0  0  0  0
  -36.6679    2.5768  -45.1269 C   0  0  0  0  0  0  0  0  0  0  0  0
  -37.8491    1.7386  -44.6339 C   0  0  0  0  0  0  0  0  0  0  0  0
  -37.3847    0.7672  -43.6943 O   0  0  0  0  0  0  0  0  0  0  0  0
  -38.4148   -0.0726  -43.1695 C   0  0  0  0  0  0  0  0  0  0  0  0
  -36.1164    3.3518  -44.0075 N   0  0  0  0  0  0  0  0  0  0  0  0
  -37.0911    4.3362  -43.5175 C   0  0  0  0  0  0  0  0  0  0  0  0
  -36.5097    5.0659  -42.3043 C   0  0  0  0  0  0  0  0  0  0  0  0
  -35.2509    5.7207  -42.6867 N   0  0  0  0  0  0  0  0  0  0  0  0
  -34.2760    4.7361  -43.1766 C   0  0  0  0  0  0  0  0  0  0  0  0
  -34.8575    4.0066  -44.3899 C   0  0  0  0  0  0  0  0  0  0  0  0
  -34.6089    6.6228  -41.3837 X   0  0  0  0  0  0  0  0  0  0  0  0
  1  2  1  0  0  0  0
  2  3  1  0  0  0  0
  3  4  1  0  0  0  0
  4  5  1  0  0  0  0
  4  8  1  0  0  0  0
  5  6  1  0  0  0  0
  6  7  1  0  0  0  0
  8  9  1  0  0  0  0
  8 13  1  0  0  0  0
  9 10  1  0  0  0  0
 10 11  1  0  0  0  0
 11 12  1  0  0  0  0
 11 14  1  0  0  0  0
 12 13  1  0  0  0  0
M  END
> <Index>
8671

> <PropertyFieldDistance>
nan

$$$$
16509334
BBcorina  12272117083D 1   1.00000     0.00000 
CORINA 4.3.0 0026  30.10.2019
 13 13  0  0  0  0  0  0  0  0999 V2000
  -32.0472    8.7118  -40.4668 C   0  0  0  0  0  0  0  0  0  0  0  0
  -33.2608    7.9622  -40.3814 O   0  0  0  0  0  0  0  0  0  0  0  0
  -33.6407    7.3299  -41.6052 C   0  0  0  0  0  0  0  0  0  0  0  0
  -34.9467    6.5602  -41.3976 C   0  0  0  0  0  0  0  0  0  0  0  0
  -36.0466    7.5302  -40.9618 C   0  0  0  0  0  0  0  0  0  0  0  0
  -34.7457    5.4974  -40.3154 C   0  0  0  0  0  0  0  0  0  0  0  0
  -35.3535    5.8832  -42.7080 C   0  0  0  0  0  0  0  0  0  0  0  0
  -36.6587    5.1099  -42.5007 C   0  0  0  0  0  0  0  0  0  0  0  0
  -37.0290    4.3869  -43.7977 C   0  0  0  0  0  0  0  0  0  0  0  0
  -35.9480    3.4664  -44.1723 N   0  0  0  0  0  0  0  0  0  0  0  0
  -34.6958    4.1916  -44.4226 C   0  0  0  0  0  0  0  0  0  0  0  0
  -34.2558    4.9088  -43.1443 C   0  0  0  0  0  0  0  0  0  0  0  0
  -36.3899    2.5209  -45.5269 X   0  0  0  0  0  0  0  0  0  0  0  0
  1  2  1  0  0  0  0
  2  3  1  0  0  0  0
  3  4  1  0  0  0  0
  4  5  1  0  0  0  0
  4  6  1  0  0  0  0
  4  7  1  0  0  0  0
  7  8  1  0  0  0  0
  7 12  1  0  0  0  0
  8  9  1  0  0  0  0
  9 10  1  0  0  0  0
 10 11  1  0  0  0  0
 10 13  1  0  0  0  0
 11 12  1  0  0  0  0
M  END
> <Index>
8680

> <PropertyFieldDistance>
nan

$$$$
14940926
BBcorina  12272117083D 1   1.00000     0.00000 
CORINA 4.3.0 0026  30.10.2019
 11 12  0  0  0  0  0  0  0  0999 V2000
  -36.0224    4.0031  -40.1886 O   0  0  0  0  0  0  0  0  0  0  0  0
  -35.7709    4.4975  -41.5167 C   0  0  0  0  0  0  0  0  0  0  0  0
  -37.0916    4.5141  -42.2823 C   0  0  0  0  0  0  0  0  0  0  0  0
  -36.8728    4.7634  -43.7700 C   0  0  0  0  0  0  0  0  0  0  0  0
  -36.3495    6.1645  -44.0426 C   0  0  0  0  0  0  0  0  0  0  0  0
  -34.9077    6.3586  -43.6003 C   0  0  0  0  0  0  0  0  0  0  0  0
  -34.0091    5.1908  -43.9771 C   0  0  0  0  0  0  0  0  0  0  0  0
  -34.6490    3.8408  -43.6850 C   0  0  0  0  0  0  0  0  0  0  0  0
  -34.7558    3.5784  -42.1895 C   0  0  0  0  0  0  0  0  0  0  0  0
  -35.9649    3.7545  -44.3232 N   0  0  0  0  0  0  0  0  0  0  0  0
  -36.6225    2.1836  -44.1768 X   0  0  0  0  0  0  0  0  0  0  0  0
  1  2  1  0  0  0  0
  2  3  1  0  0  0  0
  2  9  1  0  0  0  0
  3  4  1  0  0  0  0
  4  5  1  0  0  0  0
  4 10  1  0  0  0  0
  5  6  1  0  0  0  0
  6  7  1  0  0  0  0
  7  8  1  0  0  0  0
  8  9  1  0  0  0  0
  8 10  1  0  0  0  0
 10 11  1  0  0  0  0
M  END
> <Index>
8684

> <PropertyFieldDistance>
nan

$$$$
9865306
BBcorina  12272117083D 1   1.00000     0.00000 
CORINA 4.3.0 0026  30.10.2019
 11 11  0  0  0  0  0  0  0  0999 V2000
  -33.9836    6.3836  -40.3417 N   0  0  0  0  0  0  0  0  0  0  0  0
  -34.9316    6.4133  -41.2993 C   0  0  0  0  0  0  0  0  0  0  0  0
  -35.5314    7.4424  -41.5272 O   0  0  0  0  0  0  0  0  0  0  0  0
  -35.2461    5.1675  -42.0870 C   0  0  0  0  0  0  0  0  0  0  0  0
  -35.1141    4.0225  -41.2424 O   0  0  0  0  0  0  0  0  0  0  0  0
  -36.6793    5.2476  -42.6202 C   0  0  0  0  0  0  0  0  0  0  0  0
  -36.9723    4.0086  -43.4695 C   0  0  0  0  0  0  0  0  0  0  0  0
  -36.0192    3.9414  -44.5845 N   0  0  0  0  0  0  0  0  0  0  0  0
  -34.6396    3.8164  -44.0970 C   0  0  0  0  0  0  0  0  0  0  0  0
  -34.2770    5.0496  -43.2665 C   0  0  0  0  0  0  0  0  0  0  0  0
  -36.4111    2.6621  -45.6494 X   0  0  0  0  0  0  0  0  0  0  0  0
  1  2  1  0  0  0  0
  2  3  2  0  0  0  0
  2  4  1  0  0  0  0
  4  5  1  0  0  0  0
  4  6  1  0  0  0  0
  4 10  1  0  0  0  0
  6  7  1  0  0  0  0
  7  8  1  0  0  0  0
  8  9  1  0  0  0  0
  8 11  1  0  0  0  0
  9 10  1  0  0  0  0
M  END
> <Index>
8685

> <PropertyFieldDistance>
nan

$$$$
8859364
BBcorina  12272117083D 1   1.00000     0.00000 
CORINA 4.3.0 0026  30.10.2019
 11 11  0  0  0  0  0  0  0  0999 V2000
  -37.5708    5.1305  -41.3383 C   0  0  0  0  0  0  0  0  0  0  0  0
  -36.7155    5.2442  -42.6168 C   0  0  0  0  0  0  0  0  0  0  0  0
  -37.1899    6.4809  -43.3859 C   0  0  0  0  0  0  0  0  0  0  0  0
  -36.9574    3.9931  -43.4576 C   0  0  0  0  0  0  0  0  0  0  0  0
  -36.0194    3.9658  -44.5878 N   0  0  0  0  0  0  0  0  0  0  0  0
  -34.6478    3.8101  -44.0855 C   0  0  0  0  0  0  0  0  0  0  0  0
  -34.2473    5.0503  -43.2901 C   0  0  0  0  0  0  0  0  0  0  0  0
  -34.0543    6.2332  -44.2438 C   0  0  0  0  0  0  0  0  0  0  0  0
  -32.8899    4.7651  -42.6158 C   0  0  0  0  0  0  0  0  0  0  0  0
  -35.2592    5.3823  -42.2069 C   0  0  0  0  0  0  0  0  0  0  0  0
  -36.4163    2.7137  -45.6826 X   0  0  0  0  0  0  0  0  0  0  0  0
  1  2  1  0  0  0  0
  2  3  1  0  0  0  0
  2  4  1  0  0  0  0
  2 10  1  0  0  0  0
  4  5  1  0  0  0  0
  5  6  1  0  0  0  0
  5 11  1  0  0  0  0
  6  7  1  0  0  0  0
  7  8  1  0  0  0  0
  7  9  1  0  0  0  0
  7 10  1  0  0  0  0
M  END
> <Index>
8688

> <PropertyFieldDistance>
nan

$$$$
14187188
BBcorina  12272117083D 1   1.00000     0.00000 
CORINA 4.3.0 0026  30.10.2019
 11 11  0  0  0  0  0  0  0  0999 V2000
  -35.7178    8.0760  -39.6815 O   0  0  0  0  0  0  0  0  0  0  0  0
  -36.0435    7.5322  -40.9622 C   0  0  0  0  0  0  0  0  0  0  0  0
  -34.9460    6.5589  -41.3971 C   0  0  0  0  0  0  0  0  0  0  0  0
  -33.7239    7.2741  -41.5897 O   0  0  0  0  0  0  0  0  0  0  0  0
  -35.3535    5.8833  -42.7079 C   0  0  0  0  0  0  0  0  0  0  0  0
  -36.6585    5.1099  -42.5008 C   0  0  0  0  0  0  0  0  0  0  0  0
  -37.0291    4.3869  -43.7977 C   0  0  0  0  0  0  0  0  0  0  0  0
  -35.9480    3.4664  -44.1723 N   0  0  0  0  0  0  0  0  0  0  0  0
  -34.6958    4.1916  -44.4226 C   0  0  0  0  0  0  0  0  0  0  0  0
  -34.2559    4.9088  -43.1442 C   0  0  0  0  0  0  0  0  0  0  0  0
  -36.3899    2.5211  -45.5270 X   0  0  0  0  0  0  0  0  0  0  0  0
  1  2  1  0  0  0  0
  2  3  1  0  0  0  0
  3  4  1  0  0  0  0
  3  5  1  0  0  0  0
  5  6  1  0  0  0  0
  5 10  1  0  0  0  0
  6  7  1  0  0  0  0
  7  8  1  0  0  0  0
  8  9  1  0  0  0  0
  8 11  1  0  0  0  0
  9 10  1  0  0  0  0
M  END
> <Index>
8689

> <PropertyFieldDistance>
nan

$$$$
9479762
BBcorina  12272117083D 1   1.00000     0.00000 
CORINA 4.3.0 0026  30.10.2019
 10 10  0  0  0  0  0  0  0  0999 V2000
  -33.8994    7.4104  -42.8853 C   0  0  0  0  0  0  0  0  0  0  0  0
  -34.8649    6.3000  -43.3049 C   0  0  0  0  0  0  0  0  0  0  0  0
  -35.3198    6.5650  -44.6334 O   0  0  0  0  0  0  0  0  0  0  0  0
  -36.0770    6.3075  -42.3523 C   0  0  0  0  0  0  0  0  0  0  0  0
  -36.8661    4.9886  -42.4148 C   0  0  0  0  0  0  0  0  0  0  0  0
  -36.9974    4.4862  -43.8307 C   0  0  0  0  0  0  0  0  0  0  0  0
  -35.9109    3.5169  -44.0745 N   0  0  0  0  0  0  0  0  0  0  0  0
  -34.6839    4.0882  -44.4235 C   0  0  0  0  0  0  0  0  0  0  0  0
  -34.1291    4.9837  -43.2942 C   0  0  0  0  0  0  0  0  0  0  0  0
  -36.3861    2.3389  -45.2193 X   0  0  0  0  0  0  0  0  0  0  0  0
  1  2  1  0  0  0  0
  2  3  1  0  0  0  0
  2  4  1  0  0  0  0
  2  9  1  0  0  0  0
  4  5  1  0  0  0  0
  5  6  1  0  0  0  0
  6  7  1  0  0  0  0
  7  8  1  0  0  0  0
  7 10  1  0  0  0  0
  8  9  1  0  0  0  0
M  END
> <Index>
8691

> <PropertyFieldDistance>
nan

$$$$
11402174
BBcorina  12272117083D 1   1.00000     0.00000 
CORINA 4.3.0 0026  30.10.2019
 13 13  0  0  0  0  0  0  0  0999 V2000
  -35.2417   -0.1013  -47.2985 C   0  0  0  0  0  0  0  0  0  0  0  0
  -36.1428    0.8673  -46.7584 O   0  0  0  0  0  0  0  0  0  0  0  0
  -35.6112    1.6046  -45.6558 C   0  0  0  0  0  0  0  0  0  0  0  0
  -36.6562    2.6066  -45.1610 C   0  0  0  0  0  0  0  0  0  0  0  0
  -37.9117    1.8553  -44.7141 C   0  0  0  0  0  0  0  0  0  0  0  0
  -37.0148    3.5706  -46.2938 C   0  0  0  0  0  0  0  0  0  0  0  0
  -36.1096    3.3646  -44.0276 N   0  0  0  0  0  0  0  0  0  0  0  0
  -37.0880    4.3391  -43.5250 C   0  0  0  0  0  0  0  0  0  0  0  0
  -36.5117    5.0503  -42.2983 C   0  0  0  0  0  0  0  0  0  0  0  0
  -35.2532    5.7139  -42.6664 N   0  0  0  0  0  0  0  0  0  0  0  0
  -34.2748    4.7394  -43.1690 C   0  0  0  0  0  0  0  0  0  0  0  0
  -34.8511    4.0282  -44.3956 C   0  0  0  0  0  0  0  0  0  0  0  0
  -34.6170    6.5962  -41.3469 X   0  0  0  0  0  0  0  0  0  0  0  0
  1  2  1  0  0  0  0
  2  3  1  0  0  0  0
  3  4  1  0  0  0  0
  4  5  1  0  0  0  0
  4  6  1  0  0  0  0
  4  7  1  0  0  0  0
  7  8  1  0  0  0  0
  7 12  1  0  0  0  0
  8  9  1  0  0  0  0
  9 10  1  0  0  0  0
 10 11  1  0  0  0  0
 10 13  1  0  0  0  0
 11 12  1  0  0  0  0
M  END
> <Index>
8692

> <PropertyFieldDistance>
nan

$$$$
18057034
BBcorina  12272117083D 1   1.00000     0.00000 
CORINA 4.3.0 0026  30.10.2019
 13 13  0  0  0  0  0  0  0  0999 V2000
  -36.3336    9.5810  -37.8377 C   0  0  0  0  0  0  0  0  0  0  0  0
  -36.6725    9.1235  -39.2578 C   0  0  0  0  0  0  0  0  0  0  0  0
  -35.5915    8.2700  -39.7685 N   0  0  0  0  0  0  0  0  0  0  0  0
  -34.3496    9.0369  -39.9354 C   0  0  0  0  0  0  0  0  0  0  0  0
  -35.9828    7.6214  -41.0271 C   0  0  0  0  0  0  0  0  0  0  0  0
  -34.9460    6.5589  -41.3971 C   0  0  0  0  0  0  0  0  0  0  0  0
  -35.3535    5.8833  -42.7079 C   0  0  0  0  0  0  0  0  0  0  0  0
  -36.6585    5.1099  -42.5008 C   0  0  0  0  0  0  0  0  0  0  0  0
  -37.0291    4.3869  -43.7977 C   0  0  0  0  0  0  0  0  0  0  0  0
  -35.9480    3.4664  -44.1723 N   0  0  0  0  0  0  0  0  0  0  0  0
  -34.6958    4.1916  -44.4226 C   0  0  0  0  0  0  0  0  0  0  0  0
  -34.2559    4.9088  -43.1442 C   0  0  0  0  0  0  0  0  0  0  0  0
  -36.3899    2.5211  -45.5270 X   0  0  0  0  0  0  0  0  0  0  0  0
  1  2  1  0  0  0  0
  2  3  1  0  0  0  0
  3  4  1  0  0  0  0
  3  5  1  0  0  0  0
  5  6  1  0  0  0  0
  6  7  1  0  0  0  0
  7  8  1  0  0  0  0
  7 12  1  0  0  0  0
  8  9  1  0  0  0  0
  9 10  1  0  0  0  0
 10 11  1  0  0  0  0
 10 13  1  0  0  0  0
 11 12  1  0  0  0  0
M  END
> <Index>
8693

> <PropertyFieldDistance>
nan

$$$$
7838516
BBcorina  12272117083D 1   1.00000     0.00000 
CORINA 4.3.0 0026  30.10.2019
 11 11  0  0  0  0  0  0  0  0999 V2000
  -35.0540    2.7338  -46.7010 O   0  0  0  0  0  0  0  0  0  0  0  0
  -36.3066    2.2842  -46.1804 C   0  0  0  0  0  0  0  0  0  0  0  0
  -36.1777    2.0481  -44.6743 C   0  0  0  0  0  0  0  0  0  0  0  0
  -35.9130    3.3220  -44.0011 N   0  0  0  0  0  0  0  0  0  0  0  0
  -37.0481    4.1179  -43.5429 C   0  0  0  0  0  0  0  0  0  0  0  0
  -36.5841    5.1374  -42.5010 C   0  0  0  0  0  0  0  0  0  0  0  0
  -35.4221    5.8650  -43.0364 N   0  0  0  0  0  0  0  0  0  0  0  0
  -34.2609    4.9696  -43.1258 C   0  0  0  0  0  0  0  0  0  0  0  0
  -34.6432    3.7023  -43.8368 C   0  0  0  0  0  0  0  0  0  0  0  0
  -33.7623    2.9951  -44.2778 O   0  0  0  0  0  0  0  0  0  0  0  0
  -35.0653    7.2378  -42.0813 X   0  0  0  0  0  0  0  0  0  0  0  0
  1  2  1  0  0  0  0
  2  3  1  0  0  0  0
  3  4  1  0  0  0  0
  4  5  1  0  0  0  0
  4  9  1  0  0  0  0
  5  6  1  0  0  0  0
  6  7  1  0  0  0  0
  7  8  1  0  0  0  0
  7 11  1  0  0  0  0
  8  9  1  0  0  0  0
  9 10  2  0  0  0  0
M  END
> <Index>
8694

> <PropertyFieldDistance>
nan

$$$$
6441912
BBcorina  12272117083D 1   1.00000     0.00000 
CORINA 4.3.0 0026  30.10.2019
 14 14  0  0  0  0  0  0  0  0999 V2000
  -35.9559   -0.6663  -48.6659 C   0  0  0  0  0  0  0  0  0  0  0  0
  -35.4071   -0.0600  -47.4662 O   0  0  0  0  0  0  0  0  0  0  0  0
  -36.1119    0.9381  -46.9106 C   0  0  0  0  0  0  0  0  0  0  0  0
  -37.1531    1.2934  -47.4103 O   0  0  0  0  0  0  0  0  0  0  0  0
  -35.6049    1.6155  -45.6635 C   0  0  0  0  0  0  0  0  0  0  0  0
  -36.6591    2.5999  -45.1532 C   0  0  0  0  0  0  0  0  0  0  0  0
  -37.8982    1.8279  -44.6953 C   0  0  0  0  0  0  0  0  0  0  0  0
  -36.1114    3.3616  -44.0230 N   0  0  0  0  0  0  0  0  0  0  0  0
  -37.0889    4.3386  -43.5231 C   0  0  0  0  0  0  0  0  0  0  0  0
  -36.5112    5.0540  -42.2996 C   0  0  0  0  0  0  0  0  0  0  0  0
  -35.2526    5.7154  -42.6711 N   0  0  0  0  0  0  0  0  0  0  0  0
  -34.2751    4.7386  -43.1708 C   0  0  0  0  0  0  0  0  0  0  0  0
  -34.8527    4.0232  -44.3944 C   0  0  0  0  0  0  0  0  0  0  0  0
  -34.6149    6.6023  -41.3554 X   0  0  0  0  0  0  0  0  0  0  0  0
  1  2  1  0  0  0  0
  2  3  1  0  0  0  0
  3  4  2  0  0  0  0
  3  5  1  0  0  0  0
  5  6  1  0  0  0  0
  6  7  1  0  0  0  0
  6  8  1  0  0  0  0
  8  9  1  0  0  0  0
  8 13  1  0  0  0  0
  9 10  1  0  0  0  0
 10 11  1  0  0  0  0
 11 12  1  0  0  0  0
 11 14  1  0  0  0  0
 12 13  1  0  0  0  0
M  END
> <Index>
8695

> <PropertyFieldDistance>
nan

$$$$
11734676
BBcorina  12272117083D 1   1.00000     0.00000 
CORINA 4.3.0 0026  30.10.2019
 14 14  0  0  0  0  0  0  0  0999 V2000
  -35.3721    3.8601  -50.9054 C   0  0  0  0  0  0  0  0  0  0  0  0
  -35.9035    3.1173  -49.8063 O   0  0  0  0  0  0  0  0  0  0  0  0
  -37.0838    3.6867  -49.2365 C   0  0  0  0  0  0  0  0  0  0  0  0
  -37.5618    2.8134  -48.0747 C   0  0  0  0  0  0  0  0  0  0  0  0
  -36.5879    2.8368  -47.0292 O   0  0  0  0  0  0  0  0  0  0  0  0
  -36.9388    2.0483  -45.8903 C   0  0  0  0  0  0  0  0  0  0  0  0
  -35.8303    2.1472  -44.8403 C   0  0  0  0  0  0  0  0  0  0  0  0
  -35.7401    3.5298  -44.3521 N   0  0  0  0  0  0  0  0  0  0  0  0
  -36.8411    3.8349  -43.4280 C   0  0  0  0  0  0  0  0  0  0  0  0
  -36.7569    5.3035  -43.0054 C   0  0  0  0  0  0  0  0  0  0  0  0
  -35.4555    5.5539  -42.3706 N   0  0  0  0  0  0  0  0  0  0  0  0
  -34.3544    5.2488  -43.2948 C   0  0  0  0  0  0  0  0  0  0  0  0
  -34.4386    3.7802  -43.7173 C   0  0  0  0  0  0  0  0  0  0  0  0
  -35.3504    7.1633  -41.8023 X   0  0  0  0  0  0  0  0  0  0  0  0
  1  2  1  0  0  0  0
  2  3  1  0  0  0  0
  3  4  1  0  0  0  0
  4  5  1  0  0  0  0
  5  6  1  0  0  0  0
  6  7  1  0  0  0  0
  7  8  1  0  0  0  0
  8  9  1  0  0  0  0
  8 13  1  0  0  0  0
  9 10  1  0  0  0  0
 10 11  1  0  0  0  0
 11 12  1  0  0  0  0
 11 14  1  0  0  0  0
 12 13  1  0  0  0  0
M  END
> <Index>
8696

> <PropertyFieldDistance>
nan

$$$$
13905968
BBcorina  12272117083D 1   1.00000     0.00000 
CORINA 4.3.0 0026  30.10.2019
 12 12  0  0  0  0  0  0  0  0999 V2000
  -35.2926   -0.5208  -46.6955 O   0  0  0  0  0  0  0  0  0  0  0  0
  -36.2405    0.2933  -46.0023 C   0  0  0  0  0  0  0  0  0  0  0  0
  -35.5689    1.5954  -45.5616 C   0  0  0  0  0  0  0  0  0  0  0  0
  -36.5687    2.4539  -44.8304 C   0  0  0  0  0  0  0  0  0  0  0  0
  -37.7063    2.0627  -44.6769 O   0  0  0  0  0  0  0  0  0  0  0  0
  -36.1984    3.6564  -44.3471 N   0  0  0  0  0  0  0  0  0  0  0  0
  -37.1582    4.5099  -43.6306 C   0  0  0  0  0  0  0  0  0  0  0  0
  -36.5301    4.9380  -42.3000 C   0  0  0  0  0  0  0  0  0  0  0  0
  -35.2213    5.5540  -42.5557 N   0  0  0  0  0  0  0  0  0  0  0  0
  -34.2878    4.5919  -43.1565 C   0  0  0  0  0  0  0  0  0  0  0  0
  -34.8224    4.1471  -44.5169 C   0  0  0  0  0  0  0  0  0  0  0  0
  -34.5707    6.2272  -41.1247 X   0  0  0  0  0  0  0  0  0  0  0  0
  1  2  1  0  0  0  0
  2  3  1  0  0  0  0
  3  4  1  0  0  0  0
  4  5  2  0  0  0  0
  4  6  1  0  0  0  0
  6  7  1  0  0  0  0
  6 11  1  0  0  0  0
  7  8  1  0  0  0  0
  8  9  1  0  0  0  0
  9 10  1  0  0  0  0
  9 12  1  0  0  0  0
 10 11  1  0  0  0  0
M  END
> <Index>
8697

> <PropertyFieldDistance>
nan

$$$$
8253942
BBcorina  12272117083D 1   1.00000     0.00000 
CORINA 4.3.0 0026  30.10.2019
 15 16  0  0  0  0  0  0  0  0999 V2000
  -33.6050    7.0151  -41.2786 N   0  0  0  0  0  0  0  0  0  0  0  0
  -34.9610    6.9321  -41.8374 C   0  0  0  0  0  0  0  0  0  0  0  0
  -35.2423    5.4952  -42.2816 C   0  0  0  0  0  0  0  0  0  0  0  0
  -36.6960    5.3793  -42.7484 C   0  0  0  0  0  0  0  0  0  0  0  0
  -36.9542    3.9561  -43.2482 C   0  0  0  0  0  0  0  0  0  0  0  0
  -36.0396    3.6517  -44.3560 N   0  0  0  0  0  0  0  0  0  0  0  0
  -34.6388    3.7102  -43.9198 C   0  0  0  0  0  0  0  0  0  0  0  0
  -34.3115    5.1261  -43.4400 C   0  0  0  0  0  0  0  0  0  0  0  0
  -36.3345    2.4143  -44.9206 C   0  0  0  0  0  0  0  0  0  0  0  0
  -35.5900    1.9209  -45.9919 C   0  0  0  0  0  0  0  0  0  0  0  0
  -35.9144    0.6904  -46.5228 C   0  0  0  0  0  0  0  0  0  0  0  0
  -36.9139   -0.0171  -46.0300 N   0  0  0  0  0  0  0  0  0  0  0  0
  -37.6418    0.4151  -45.0173 C   0  0  0  0  0  0  0  0  0  0  0  0
  -37.3786    1.6328  -44.4262 C   0  0  0  0  0  0  0  0  0  0  0  0
  -33.2489    8.6080  -40.7686 X   0  0  0  0  0  0  0  0  0  0  0  0
  1  2  1  0  0  0  0
  1 15  1  0  0  0  0
  2  3  1  0  0  0  0
  3  4  1  0  0  0  0
  3  8  1  0  0  0  0
  4  5  1  0  0  0  0
  5  6  1  0  0  0  0
  6  7  1  0  0  0  0
  6  9  1  0  0  0  0
  7  8  1  0  0  0  0
  9 10  2  0  0  0  0
  9 14  1  0  0  0  0
 10 11  1  0  0  0  0
 11 12  2  0  0  0  0
 12 13  1  0  0  0  0
 13 14  2  0  0  0  0
M  END
> <Index>
8707

> <PropertyFieldDistance>
nan

$$$$
12055892
BBcorina  12272117083D 1   1.00000     0.00000 
CORINA 4.3.0 0026  30.10.2019
 13 14  0  0  0  0  0  0  0  0999 V2000
  -33.9811    5.9204  -42.7155 N   0  0  0  0  0  0  0  0  0  0  0  0
  -35.0479    5.3735  -43.5644 C   0  0  0  0  0  0  0  0  0  0  0  0
  -36.3874    5.2938  -42.7801 C   0  0  0  0  0  0  0  0  0  0  0  0
  -37.1145    4.1470  -43.5256 C   0  0  0  0  0  0  0  0  0  0  0  0
  -36.0493    3.1806  -43.8678 N   0  0  0  0  0  0  0  0  0  0  0  0
  -34.7624    3.8985  -43.9171 C   0  0  0  0  0  0  0  0  0  0  0  0
  -36.3314    2.5173  -45.1478 C   0  0  0  0  0  0  0  0  0  0  0  0
  -35.2640    1.4551  -45.4180 C   0  0  0  0  0  0  0  0  0  0  0  0
  -35.5579    0.7643  -46.7511 C   0  0  0  0  0  0  0  0  0  0  0  0
  -36.9345    0.0994  -46.6884 C   0  0  0  0  0  0  0  0  0  0  0  0
  -38.0021    1.1617  -46.4181 C   0  0  0  0  0  0  0  0  0  0  0  0
  -37.7081    1.8525  -45.0850 C   0  0  0  0  0  0  0  0  0  0  0  0
  -33.7902    7.5995  -42.9767 X   0  0  0  0  0  0  0  0  0  0  0  0
  1  2  1  0  0  0  0
  1 13  1  0  0  0  0
  2  3  1  0  0  0  0
  2  6  1  0  0  0  0
  3  4  1  0  0  0  0
  4  5  1  0  0  0  0
  5  6  1  0  0  0  0
  5  7  1  0  0  0  0
  7  8  1  0  0  0  0
  7 12  1  0  0  0  0
  8  9  1  0  0  0  0
  9 10  1  0  0  0  0
 10 11  1  0  0  0  0
 11 12  1  0  0  0  0
M  END
> <Index>
8721

> <PropertyFieldDistance>
nan

$$$$
6727544
BBcorina  12272117083D 1   1.00000     0.00000 
CORINA 4.3.0 0026  30.10.2019
 12 12  0  0  0  0  0  0  0  0999 V2000
  -33.7881    7.0751  -41.1795 C   0  0  0  0  0  0  0  0  0  0  0  0
  -34.8342    6.9189  -42.1403 O   0  0  0  0  0  0  0  0  0  0  0  0
  -35.1630    5.5577  -42.4252 C   0  0  0  0  0  0  0  0  0  0  0  0
  -36.6429    5.4576  -42.8054 C   0  0  0  0  0  0  0  0  0  0  0  0
  -36.9749    4.0081  -43.1668 C   0  0  0  0  0  0  0  0  0  0  0  0
  -36.1324    3.5770  -44.2897 N   0  0  0  0  0  0  0  0  0  0  0  0
  -36.5188    2.2380  -44.7539 C   0  0  0  0  0  0  0  0  0  0  0  0
  -35.7986    1.9261  -46.0674 C   0  0  0  0  0  0  0  0  0  0  0  0
  -36.1850    0.5870  -46.5316 N   0  0  0  0  0  0  0  0  0  0  0  0
  -34.7087    3.6195  -43.9322 C   0  0  0  0  0  0  0  0  0  0  0  0
  -34.3091    5.0575  -43.5937 C   0  0  0  0  0  0  0  0  0  0  0  0
  -35.4008    0.1977  -48.0005 X   0  0  0  0  0  0  0  0  0  0  0  0
  1  2  1  0  0  0  0
  2  3  1  0  0  0  0
  3  4  1  0  0  0  0
  3 11  1  0  0  0  0
  4  5  1  0  0  0  0
  5  6  1  0  0  0  0
  6  7  1  0  0  0  0
  6 10  1  0  0  0  0
  7  8  1  0  0  0  0
  8  9  1  0  0  0  0
  9 12  1  0  0  0  0
 10 11  1  0  0  0  0
M  END
> <Index>
8777

> <PropertyFieldDistance>
nan

$$$$
11402056
BBcorina  12272117083D 1   1.00000     0.00000 
CORINA 4.3.0 0026  30.10.2019
 10 10  0  0  0  0  0  0  0  0999 V2000
  -36.1059    1.6538  -45.9847 C   0  0  0  0  0  0  0  0  0  0  0  0
  -36.3933    2.1751  -44.5752 C   0  0  0  0  0  0  0  0  0  0  0  0
  -36.0173    3.5927  -44.4913 N   0  0  0  0  0  0  0  0  0  0  0  0
  -35.5808    1.3708  -43.5585 C   0  0  0  0  0  0  0  0  0  0  0  0
  -35.8682    1.8921  -42.1490 C   0  0  0  0  0  0  0  0  0  0  0  0
  -35.0557    1.0878  -41.1322 C   0  0  0  0  0  0  0  0  0  0  0  0
  -35.4474   -0.3886  -41.2197 C   0  0  0  0  0  0  0  0  0  0  0  0
  -35.1600   -0.9099  -42.6291 C   0  0  0  0  0  0  0  0  0  0  0  0
  -35.9725   -0.1056  -43.6459 C   0  0  0  0  0  0  0  0  0  0  0  0
  -37.3326    4.6015  -44.9109 X   0  0  0  0  0  0  0  0  0  0  0  0
  1  2  1  0  0  0  0
  2  3  1  0  0  0  0
  2  4  1  0  0  0  0
  3 10  1  0  0  0  0
  4  5  1  0  0  0  0
  4  9  1  0  0  0  0
  5  6  1  0  0  0  0
  6  7  1  0  0  0  0
  7  8  1  0  0  0  0
  8  9  1  0  0  0  0
M  END
> <Index>
8808

> <PropertyFieldDistance>
nan

$$$$
15494410
BBcorina  12272117083D 1   1.00000     0.00000 
CORINA 4.3.0 0026  30.10.2019
 14 15  0  0  0  0  0  0  0  0999 V2000
  -38.3901    1.5106  -43.7150 C   0  0  0  0  0  0  0  0  0  0  0  0
  -37.4006    1.5618  -44.7940 N   0  0  0  0  0  0  0  0  0  0  0  0
  -37.3846    0.7763  -45.9578 N   0  0  0  0  0  0  0  0  0  0  0  0
  -36.3331    1.1407  -46.6507 C   0  0  0  0  0  0  0  0  0  0  0  0
  -35.9473    0.6060  -47.8809 N   0  0  0  0  0  0  0  0  0  0  0  0
  -35.6932    2.1122  -45.9905 N   0  0  0  0  0  0  0  0  0  0  0  0
  -36.3244    2.3724  -44.8652 C   0  0  0  0  0  0  0  0  0  0  0  0
  -35.9530    3.3151  -43.9240 N   0  0  0  0  0  0  0  0  0  0  0  0
  -37.0421    4.2733  -43.6798 C   0  0  0  0  0  0  0  0  0  0  0  0
  -36.6106    5.2600  -42.5917 C   0  0  0  0  0  0  0  0  0  0  0  0
  -35.3999    5.9066  -42.9934 O   0  0  0  0  0  0  0  0  0  0  0  0
  -34.3186    5.0032  -43.2387 C   0  0  0  0  0  0  0  0  0  0  0  0
  -34.7260    4.0137  -44.3337 C   0  0  0  0  0  0  0  0  0  0  0  0
  -36.8779   -0.6328  -48.6043 X   0  0  0  0  0  0  0  0  0  0  0  0
  1  2  1  0  0  0  0
  2  3  1  0  0  0  0
  2  7  1  0  0  0  0
  3  4  2  0  0  0  0
  4  5  1  0  0  0  0
  4  6  1  0  0  0  0
  5 14  1  0  0  0  0
  6  7  2  0  0  0  0
  7  8  1  0  0  0  0
  8  9  1  0  0  0  0
  8 13  1  0  0  0  0
  9 10  1  0  0  0  0
 10 11  1  0  0  0  0
 11 12  1  0  0  0  0
 12 13  1  0  0  0  0
M  END
> <Index>
8812

> <PropertyFieldDistance>
nan

$$$$
7840626
BBcorina  12272117083D 1   1.00000     0.00000 
CORINA 4.3.0 0026  30.10.2019
 13 14  0  0  0  0  0  0  0  0999 V2000
  -36.3662    2.3505  -44.9167 C   0  0  0  0  0  0  0  0  0  0  0  0
  -36.0467    3.6675  -44.3497 N   0  0  0  0  0  0  0  0  0  0  0  0
  -36.8587    3.9373  -43.1525 C   0  0  0  0  0  0  0  0  0  0  0  0
  -36.7616    5.4278  -42.8259 C   0  0  0  0  0  0  0  0  0  0  0  0
  -37.3759    5.6810  -41.5157 N   0  0  0  0  0  0  0  0  0  0  0  0
  -35.3163    5.8535  -42.7916 C   0  0  0  0  0  0  0  0  0  0  0  0
  -34.9944    7.0525  -42.1744 C   0  0  0  0  0  0  0  0  0  0  0  0
  -33.6833    7.4833  -42.1281 C   0  0  0  0  0  0  0  0  0  0  0  0
  -32.6862    6.7129  -42.6959 C   0  0  0  0  0  0  0  0  0  0  0  0
  -33.0061    5.5207  -43.3141 C   0  0  0  0  0  0  0  0  0  0  0  0
  -34.3220    5.0851  -43.3591 C   0  0  0  0  0  0  0  0  0  0  0  0
  -34.6195    3.7695  -44.0293 C   0  0  0  0  0  0  0  0  0  0  0  0
  -38.0518    7.2504  -41.4488 X   0  0  0  0  0  0  0  0  0  0  0  0
  1  2  1  0  0  0  0
  2  3  1  0  0  0  0
  2 12  1  0  0  0  0
  3  4  1  0  0  0  0
  4  5  1  0  0  0  0
  4  6  1  0  0  0  0
  5 13  1  0  0  0  0
  6  7  2  0  0  0  0
  6 11  1  0  0  0  0
  7  8  1  0  0  0  0
  8  9  2  0  0  0  0
  9 10  1  0  0  0  0
 10 11  2  0  0  0  0
 11 12  1  0  0  0  0
M  END
> <Index>
8814

> <PropertyFieldDistance>
nan

$$$$
6727128
BBcorina  12272117083D 1   1.00000     0.00000 
CORINA 4.3.0 0026  30.10.2019
 14 15  0  0  0  0  0  0  0  0999 V2000
  -36.2019   -1.1505  -44.3646 N   0  0  0  0  0  0  0  0  0  0  0  0
  -36.6652   -0.5118  -45.6038 C   0  0  0  0  0  0  0  0  0  0  0  0
  -35.5371    0.3379  -46.1922 C   0  0  0  0  0  0  0  0  0  0  0  0
  -35.1309    1.4150  -45.1844 C   0  0  0  0  0  0  0  0  0  0  0  0
  -36.3354    2.3075  -44.8786 C   0  0  0  0  0  0  0  0  0  0  0  0
  -37.4635    1.4579  -44.2902 C   0  0  0  0  0  0  0  0  0  0  0  0
  -37.8697    0.3807  -45.2980 C   0  0  0  0  0  0  0  0  0  0  0  0
  -35.9453    3.3417  -43.9110 N   0  0  0  0  0  0  0  0  0  0  0  0
  -37.0432    4.2897  -43.6827 C   0  0  0  0  0  0  0  0  0  0  0  0
  -36.6554    5.2624  -42.5667 C   0  0  0  0  0  0  0  0  0  0  0  0
  -35.3833    6.0133  -42.9700 C   0  0  0  0  0  0  0  0  0  0  0  0
  -34.2692    5.0007  -43.2489 C   0  0  0  0  0  0  0  0  0  0  0  0
  -34.7262    4.0356  -44.3452 C   0  0  0  0  0  0  0  0  0  0  0  0
  -37.0953   -2.5711  -44.0362 X   0  0  0  0  0  0  0  0  0  0  0  0
  1  2  1  0  0  0  0
  1 14  1  0  0  0  0
  2  3  1  0  0  0  0
  2  7  1  0  0  0  0
  3  4  1  0  0  0  0
  4  5  1  0  0  0  0
  5  6  1  0  0  0  0
  5  8  1  0  0  0  0
  6  7  1  0  0  0  0
  8  9  1  0  0  0  0
  8 13  1  0  0  0  0
  9 10  1  0  0  0  0
 10 11  1  0  0  0  0
 11 12  1  0  0  0  0
 12 13  1  0  0  0  0
M  END
> <Index>
8842

> <PropertyFieldDistance>
nan

$$$$
7345734
BBcorina  12272117083D 1   1.00000     0.00000 
CORINA 4.3.0 0026  30.10.2019
 14 15  0  0  0  0  0  0  0  0999 V2000
  -36.3845    2.3687  -46.0049 C   0  0  0  0  0  0  0  0  0  0  0  0
  -36.1426    1.9899  -44.5423 C   0  0  0  0  0  0  0  0  0  0  0  0
  -35.8591    3.2023  -43.7629 N   0  0  0  0  0  0  0  0  0  0  0  0
  -36.9560    4.1759  -43.8845 C   0  0  0  0  0  0  0  0  0  0  0  0
  -36.7911    5.2321  -42.7916 C   0  0  0  0  0  0  0  0  0  0  0  0
  -35.3827    5.7686  -42.8026 C   0  0  0  0  0  0  0  0  0  0  0  0
  -35.1222    6.9655  -42.1392 C   0  0  0  0  0  0  0  0  0  0  0  0
  -36.1582    7.6430  -41.4923 N   0  0  0  0  0  0  0  0  0  0  0  0
  -33.8374    7.4893  -42.1239 C   0  0  0  0  0  0  0  0  0  0  0  0
  -32.8145    6.8139  -42.7598 C   0  0  0  0  0  0  0  0  0  0  0  0
  -33.0758    5.6285  -43.4184 C   0  0  0  0  0  0  0  0  0  0  0  0
  -34.3602    5.1040  -43.4428 C   0  0  0  0  0  0  0  0  0  0  0  0
  -34.5919    3.8109  -44.1800 C   0  0  0  0  0  0  0  0  0  0  0  0
  -35.8152    9.0221  -40.5412 X   0  0  0  0  0  0  0  0  0  0  0  0
  1  2  1  0  0  0  0
  2  3  1  0  0  0  0
  3  4  1  0  0  0  0
  3 13  1  0  0  0  0
  4  5  1  0  0  0  0
  5  6  1  0  0  0  0
  6  7  2  0  0  0  0
  6 12  1  0  0  0  0
  7  8  1  0  0  0  0
  7  9  1  0  0  0  0
  8 14  1  0  0  0  0
  9 10  2  0  0  0  0
 10 11  1  0  0  0  0
 11 12  2  0  0  0  0
 12 13  1  0  0  0  0
M  END
> <Index>
8853

> <PropertyFieldDistance>
nan

$$$$
15267574
BBcorina  12272117083D 1   1.00000     0.00000 
CORINA 4.3.0 0026  30.10.2019
 13 14  0  0  0  0  0  0  0  0999 V2000
  -36.2501    2.2757  -44.7957 C   0  0  0  0  0  0  0  0  0  0  0  0
  -36.0812    3.6762  -44.3857 N   0  0  0  0  0  0  0  0  0  0  0  0
  -36.9245    3.9901  -43.2305 C   0  0  0  0  0  0  0  0  0  0  0  0
  -36.6852    5.4513  -42.8307 C   0  0  0  0  0  0  0  0  0  0  0  0
  -35.2614    5.5628  -42.2809 C   0  0  0  0  0  0  0  0  0  0  0  0
  -34.3012    4.8663  -43.2122 C   0  0  0  0  0  0  0  0  0  0  0  0
  -32.9465    5.1341  -43.0738 C   0  0  0  0  0  0  0  0  0  0  0  0
  -32.0208    4.5160  -43.8902 C   0  0  0  0  0  0  0  0  0  0  0  0
  -32.4414    3.6205  -44.8561 C   0  0  0  0  0  0  0  0  0  0  0  0
  -33.7904    3.3489  -45.0033 C   0  0  0  0  0  0  0  0  0  0  0  0
  -34.2160    2.4418  -45.9814 N   0  0  0  0  0  0  0  0  0  0  0  0
  -34.7325    3.9781  -44.1783 C   0  0  0  0  0  0  0  0  0  0  0  0
  -33.4910    0.8967  -46.0879 X   0  0  0  0  0  0  0  0  0  0  0  0
  1  2  1  0  0  0  0
  2  3  1  0  0  0  0
  2 12  1  0  0  0  0
  3  4  1  0  0  0  0
  4  5  1  0  0  0  0
  5  6  1  0  0  0  0
  6  7  2  0  0  0  0
  6 12  1  0  0  0  0
  7  8  1  0  0  0  0
  8  9  2  0  0  0  0
  9 10  1  0  0  0  0
 10 11  1  0  0  0  0
 10 12  2  0  0  0  0
 11 13  1  0  0  0  0
M  END
> <Index>
8866

> <PropertyFieldDistance>
nan

$$$$
7763948
BBcorina  12272117083D 1   1.00000     0.00000 
CORINA 4.3.0 0026  30.10.2019
 13 14  0  0  0  0  0  0  0  0999 V2000
  -33.9793    5.8832  -42.6835 N   0  0  0  0  0  0  0  0  0  0  0  0
  -35.0435    5.3555  -43.5478 C   0  0  0  0  0  0  0  0  0  0  0  0
  -36.3866    5.2726  -42.7760 C   0  0  0  0  0  0  0  0  0  0  0  0
  -37.1182    4.1419  -43.5414 C   0  0  0  0  0  0  0  0  0  0  0  0
  -36.0566    3.1737  -43.8898 N   0  0  0  0  0  0  0  0  0  0  0  0
  -34.7648    3.8839  -43.9196 C   0  0  0  0  0  0  0  0  0  0  0  0
  -36.3188    2.5651  -45.1116 C   0  0  0  0  0  0  0  0  0  0  0  0
  -37.4950    1.8426  -45.2836 C   0  0  0  0  0  0  0  0  0  0  0  0
  -37.7457    1.2466  -46.5066 C   0  0  0  0  0  0  0  0  0  0  0  0
  -36.8032    1.3846  -47.5166 C   0  0  0  0  0  0  0  0  0  0  0  0
  -35.6571    2.1160  -47.2767 C   0  0  0  0  0  0  0  0  0  0  0  0
  -35.4465    2.6780  -46.1016 N   0  0  0  0  0  0  0  0  0  0  0  0
  -33.7910    4.9181  -41.2846 X   0  0  0  0  0  0  0  0  0  0  0  0
  1  2  1  0  0  0  0
  1 13  1  0  0  0  0
  2  3  1  0  0  0  0
  2  6  1  0  0  0  0
  3  4  1  0  0  0  0
  4  5  1  0  0  0  0
  5  6  1  0  0  0  0
  5  7  1  0  0  0  0
  7  8  2  0  0  0  0
  7 12  1  0  0  0  0
  8  9  1  0  0  0  0
  9 10  2  0  0  0  0
 10 11  1  0  0  0  0
 11 12  2  0  0  0  0
M  END
> <Index>
8882

> <PropertyFieldDistance>
nan

$$$$
12638176
BBcorina  12272117083D 1   1.00000     0.00000 
CORINA 4.3.0 0026  30.10.2019
 12 14  0  0  0  0  0  0  0  0999 V2000
  -32.7263    2.8617  -43.4409 N   0  0  0  0  0  0  0  0  0  0  0  0
  -34.1169    2.3883  -43.4302 C   0  0  0  0  0  0  0  0  0  0  0  0
  -34.7582    2.8426  -42.1417 C   0  0  0  0  0  0  0  0  0  0  0  0
  -36.0726    3.5484  -42.4230 C   0  0  0  0  0  0  0  0  0  0  0  0
  -37.1571    2.6747  -42.9942 C   0  0  0  0  0  0  0  0  0  0  0  0
  -37.1643    2.4794  -44.5048 C   0  0  0  0  0  0  0  0  0  0  0  0
  -36.9760    3.8653  -45.1874 C   0  0  0  0  0  0  0  0  0  0  0  0
  -35.5195    4.1835  -44.7223 C   0  0  0  0  0  0  0  0  0  0  0  0
  -35.7292    4.7524  -43.3086 C   0  0  0  0  0  0  0  0  0  0  0  0
  -34.7805    2.8549  -44.6973 C   0  0  0  0  0  0  0  0  0  0  0  0
  -35.8715    1.7661  -44.9670 C   0  0  0  0  0  0  0  0  0  0  0  0
  -32.6606    4.5704  -43.4324 X   0  0  0  0  0  0  0  0  0  0  0  0
  1  2  1  0  0  0  0
  1 12  1  0  0  0  0
  2  3  1  0  0  0  0
  2 10  1  0  0  0  0
  3  4  1  0  0  0  0
  4  5  1  0  0  0  0
  4  9  1  0  0  0  0
  5  6  1  0  0  0  0
  6  7  1  0  0  0  0
  6 11  1  0  0  0  0
  7  8  1  0  0  0  0
  8  9  1  0  0  0  0
  8 10  1  0  0  0  0
 10 11  1  0  0  0  0
M  END
> <Index>
8903

> <PropertyFieldDistance>
nan

$$$$
14263150
BBcorina  12272117083D 1   1.00000     0.00000 
CORINA 4.3.0 0026  30.10.2019
 12 12  0  0  0  0  0  0  0  0999 V2000
  -37.8347    0.2048  -47.4295 C   0  0  0  0  0  0  0  0  0  0  0  0
  -36.8122    0.4439  -46.3168 C   0  0  0  0  0  0  0  0  0  0  0  0
  -36.8221    1.9227  -45.9242 C   0  0  0  0  0  0  0  0  0  0  0  0
  -35.7995    2.1618  -44.8115 C   0  0  0  0  0  0  0  0  0  0  0  0
  -35.8091    3.5815  -44.4346 N   0  0  0  0  0  0  0  0  0  0  0  0
  -37.0146    3.9110  -43.6314 C   0  0  0  0  0  0  0  0  0  0  0  0
  -36.6389    5.2056  -42.8790 C   0  0  0  0  0  0  0  0  0  0  0  0
  -35.0976    5.1989  -42.8146 C   0  0  0  0  0  0  0  0  0  0  0  0
  -34.6266    5.1818  -41.3591 C   0  0  0  0  0  0  0  0  0  0  0  0
  -34.9972    6.4462  -40.7095 N   0  0  0  0  0  0  0  0  0  0  0  0
  -34.6718    3.9008  -43.5336 C   0  0  0  0  0  0  0  0  0  0  0  0
  -34.4881    6.4688  -39.0773 X   0  0  0  0  0  0  0  0  0  0  0  0
  1  2  1  0  0  0  0
  2  3  1  0  0  0  0
  3  4  1  0  0  0  0
  4  5  1  0  0  0  0
  5  6  1  0  0  0  0
  5 11  1  0  0  0  0
  6  7  1  0  0  0  0
  7  8  1  0  0  0  0
  8  9  1  0  0  0  0
  8 11  1  0  0  0  0
  9 10  1  0  0  0  0
 10 12  1  0  0  0  0
M  END
> <Index>
8919

> <PropertyFieldDistance>
nan

$$$$
10644120
BBcorina  12272117083D 1   1.00000     0.00000 
CORINA 4.3.0 0026  30.10.2019
 12 12  0  0  0  0  0  0  0  0999 V2000
  -37.8854    0.2705  -47.2826 O   0  0  0  0  0  0  0  0  0  0  0  0
  -36.8035    1.1737  -47.0464 C   0  0  0  0  0  0  0  0  0  0  0  0
  -36.8884    1.7080  -45.6152 C   0  0  0  0  0  0  0  0  0  0  0  0
  -35.7300    2.6751  -45.3624 C   0  0  0  0  0  0  0  0  0  0  0  0
  -35.8116    3.1880  -43.9883 N   0  0  0  0  0  0  0  0  0  0  0  0
  -37.0408    3.9858  -43.7925 C   0  0  0  0  0  0  0  0  0  0  0  0
  -36.6383    5.0920  -42.7855 C   0  0  0  0  0  0  0  0  0  0  0  0
  -35.1883    5.4123  -43.2349 C   0  0  0  0  0  0  0  0  0  0  0  0
  -34.6468    4.0344  -43.6704 C   0  0  0  0  0  0  0  0  0  0  0  0
  -33.7609    4.1871  -44.9083 C   0  0  0  0  0  0  0  0  0  0  0  0
  -32.5678    4.9714  -44.5629 N   0  0  0  0  0  0  0  0  0  0  0  0
  -31.6216    5.2911  -45.9510 X   0  0  0  0  0  0  0  0  0  0  0  0
  1  2  1  0  0  0  0
  2  3  1  0  0  0  0
  3  4  1  0  0  0  0
  4  5  1  0  0  0  0
  5  6  1  0  0  0  0
  5  9  1  0  0  0  0
  6  7  1  0  0  0  0
  7  8  1  0  0  0  0
  8  9  1  0  0  0  0
  9 10  1  0  0  0  0
 10 11  1  0  0  0  0
 11 12  1  0  0  0  0
M  END
> <Index>
8920

> <PropertyFieldDistance>
nan

$$$$
13424886
BBcorina  12272117083D 1   1.00000     0.00000 
CORINA 4.3.0 0026  30.10.2019
 14 15  0  0  0  0  0  0  0  0999 V2000
  -34.9201   -0.6092  -46.5027 N   0  0  0  0  0  0  0  0  0  0  0  0
  -35.7977    0.4022  -46.1223 C   0  0  0  0  0  0  0  0  0  0  0  0
  -37.0857    0.4708  -46.6575 C   0  0  0  0  0  0  0  0  0  0  0  0
  -37.9273    1.4855  -46.2574 C   0  0  0  0  0  0  0  0  0  0  0  0
  -37.5323    2.3883  -45.3783 N   0  0  0  0  0  0  0  0  0  0  0  0
  -36.3189    2.3603  -44.8456 C   0  0  0  0  0  0  0  0  0  0  0  0
  -35.4152    1.3665  -45.1947 C   0  0  0  0  0  0  0  0  0  0  0  0
  -35.9495    3.3335  -43.9238 N   0  0  0  0  0  0  0  0  0  0  0  0
  -37.0466    4.2815  -43.6913 C   0  0  0  0  0  0  0  0  0  0  0  0
  -36.6586    5.2473  -42.5693 C   0  0  0  0  0  0  0  0  0  0  0  0
  -35.3853    5.9990  -42.9670 C   0  0  0  0  0  0  0  0  0  0  0  0
  -34.2720    4.9867  -43.2505 C   0  0  0  0  0  0  0  0  0  0  0  0
  -34.7291    4.0284  -44.3527 C   0  0  0  0  0  0  0  0  0  0  0  0
  -35.4146   -1.7875  -47.6390 X   0  0  0  0  0  0  0  0  0  0  0  0
  1  2  1  0  0  0  0
  1 14  1  0  0  0  0
  2  3  2  0  0  0  0
  2  7  1  0  0  0  0
  3  4  1  0  0  0  0
  4  5  2  0  0  0  0
  5  6  1  0  0  0  0
  6  7  2  0  0  0  0
  6  8  1  0  0  0  0
  8  9  1  0  0  0  0
  8 13  1  0  0  0  0
  9 10  1  0  0  0  0
 10 11  1  0  0  0  0
 11 12  1  0  0  0  0
 12 13  1  0  0  0  0
M  END
> <Index>
8924

> <PropertyFieldDistance>
nan

$$$$
9109586
BBcorina  12272117083D 1   1.00000     0.00000 
CORINA 4.3.0 0026  30.10.2019
 14 15  0  0  0  0  0  0  0  0999 V2000
  -36.2687    2.3012  -44.1564 C   0  0  0  0  0  0  0  0  0  0  0  0
  -36.0214    3.6939  -44.5527 N   0  0  0  0  0  0  0  0  0  0  0  0
  -36.9918    4.5969  -43.9303 C   0  0  0  0  0  0  0  0  0  0  0  0
  -36.6669    4.7115  -42.4358 C   0  0  0  0  0  0  0  0  0  0  0  0
  -37.7752    5.4894  -41.7234 C   0  0  0  0  0  0  0  0  0  0  0  0
  -37.5000    5.5237  -40.2809 N   0  0  0  0  0  0  0  0  0  0  0  0
  -35.3389    5.4596  -42.2982 C   0  0  0  0  0  0  0  0  0  0  0  0
  -34.3275    4.8776  -43.2535 C   0  0  0  0  0  0  0  0  0  0  0  0
  -32.9913    5.1895  -43.0600 C   0  0  0  0  0  0  0  0  0  0  0  0
  -32.0248    4.6887  -43.9099 C   0  0  0  0  0  0  0  0  0  0  0  0
  -32.3909    3.8760  -44.9669 C   0  0  0  0  0  0  0  0  0  0  0  0
  -33.7174    3.5560  -45.1617 C   0  0  0  0  0  0  0  0  0  0  0  0
  -34.6985    4.0566  -44.3044 C   0  0  0  0  0  0  0  0  0  0  0  0
  -38.7175    6.3857  -39.4450 X   0  0  0  0  0  0  0  0  0  0  0  0
  1  2  1  0  0  0  0
  2  3  1  0  0  0  0
  2 13  1  0  0  0  0
  3  4  1  0  0  0  0
  4  5  1  0  0  0  0
  4  7  1  0  0  0  0
  5  6  1  0  0  0  0
  6 14  1  0  0  0  0
  7  8  1  0  0  0  0
  8  9  2  0  0  0  0
  8 13  1  0  0  0  0
  9 10  1  0  0  0  0
 10 11  2  0  0  0  0
 11 12  1  0  0  0  0
 12 13  2  0  0  0  0
M  END
> <Index>
8925

> <PropertyFieldDistance>
nan

$$$$
8930670
BBcorina  12272117083D 1   1.00000     0.00000 
CORINA 4.3.0 0026  30.10.2019
 13 13  0  0  0  0  0  0  0  0999 V2000
  -38.7338    0.3946  -46.7160 C   0  0  0  0  0  0  0  0  0  0  0  0
  -37.4320    1.1960  -46.7801 C   0  0  0  0  0  0  0  0  0  0  0  0
  -37.1960    1.8937  -45.4390 C   0  0  0  0  0  0  0  0  0  0  0  0
  -35.8350    2.5926  -45.4603 C   0  0  0  0  0  0  0  0  0  0  0  0
  -35.6084    3.2624  -44.1726 N   0  0  0  0  0  0  0  0  0  0  0  0
  -36.7989    4.0165  -43.7546 C   0  0  0  0  0  0  0  0  0  0  0  0
  -36.5505    4.6323  -42.3756 C   0  0  0  0  0  0  0  0  0  0  0  0
  -35.3711    5.5067  -42.4372 N   0  0  0  0  0  0  0  0  0  0  0  0
  -35.1444    6.1765  -41.1497 C   0  0  0  0  0  0  0  0  0  0  0  0
  -34.1811    4.7525  -42.8553 C   0  0  0  0  0  0  0  0  0  0  0  0
  -34.4290    4.1369  -44.2343 C   0  0  0  0  0  0  0  0  0  0  0  0
  -37.5287    2.2028  -47.8455 N   0  0  0  0  0  0  0  0  0  0  0  0
  -36.9746    1.5733  -49.3356 X   0  0  0  0  0  0  0  0  0  0  0  0
  1  2  1  0  0  0  0
  2  3  1  0  0  0  0
  2 12  1  0  0  0  0
  3  4  1  0  0  0  0
  4  5  1  0  0  0  0
  5  6  1  0  0  0  0
  5 11  1  0  0  0  0
  6  7  1  0  0  0  0
  7  8  1  0  0  0  0
  8  9  1  0  0  0  0
  8 10  1  0  0  0  0
 10 11  1  0  0  0  0
 12 13  1  0  0  0  0
M  END
> <Index>
8927

> <PropertyFieldDistance>
nan

$$$$
8749722
BBcorina  12272117083D 1   1.00000     0.00000 
CORINA 4.3.0 0026  30.10.2019
 11 11  0  0  0  0  0  0  0  0999 V2000
  -36.1059    1.6538  -45.9846 C   0  0  0  0  0  0  0  0  0  0  0  0
  -36.3933    2.1751  -44.5753 C   0  0  0  0  0  0  0  0  0  0  0  0
  -36.0172    3.5927  -44.4913 N   0  0  0  0  0  0  0  0  0  0  0  0
  -37.8850    2.0243  -44.2700 C   0  0  0  0  0  0  0  0  0  0  0  0
  -38.6923    2.7771  -45.3448 C   0  0  0  0  0  0  0  0  0  0  0  0
  -40.1452    3.0559  -44.9147 C   0  0  0  0  0  0  0  0  0  0  0  0
  -40.7736    1.8819  -44.2140 C   0  0  0  0  0  0  0  0  0  0  0  0
  -40.5909    2.0640  -42.6932 C   0  0  0  0  0  0  0  0  0  0  0  0
  -39.2613    1.6787  -42.2441 C   0  0  0  0  0  0  0  0  0  0  0  0
  -38.1526    2.5405  -42.8822 C   0  0  0  0  0  0  0  0  0  0  0  0
  -34.3881    3.7666  -44.0016 X   0  0  0  0  0  0  0  0  0  0  0  0
  1  2  1  0  0  0  0
  2  3  1  0  0  0  0
  2  4  1  0  0  0  0
  3 11  1  0  0  0  0
  4  5  1  0  0  0  0
  4 10  1  0  0  0  0
  5  6  1  0  0  0  0
  6  7  1  0  0  0  0
  7  8  1  0  0  0  0
  8  9  1  0  0  0  0
  9 10  1  0  0  0  0
M  END
> <Index>
8931

> <PropertyFieldDistance>
nan

$$$$
13655764
BBcorina  12272117083D 1   1.00000     0.00000 
CORINA 4.3.0 0026  30.10.2019
 12 12  0  0  0  0  0  0  0  0999 V2000
  -36.1552    0.7215  -46.7473 C   0  0  0  0  0  0  0  0  0  0  0  0
  -35.5919    1.5643  -45.6013 C   0  0  0  0  0  0  0  0  0  0  0  0
  -36.6643    2.5389  -45.1101 C   0  0  0  0  0  0  0  0  0  0  0  0
  -37.8518    1.7519  -44.5524 C   0  0  0  0  0  0  0  0  0  0  0  0
  -36.1035    3.3927  -44.0545 N   0  0  0  0  0  0  0  0  0  0  0  0
  -37.0911    4.3766  -43.5933 C   0  0  0  0  0  0  0  0  0  0  0  0
  -36.5249    5.1487  -42.3994 C   0  0  0  0  0  0  0  0  0  0  0  0
  -35.2326    5.8539  -42.8204 C   0  0  0  0  0  0  0  0  0  0  0  0
  -34.2387    4.8125  -43.3419 C   0  0  0  0  0  0  0  0  0  0  0  0
  -34.8712    4.0501  -44.5085 C   0  0  0  0  0  0  0  0  0  0  0  0
  -34.6541    6.5503  -41.6635 N   0  0  0  0  0  0  0  0  0  0  0  0
  -34.1923    5.4399  -40.4479 X   0  0  0  0  0  0  0  0  0  0  0  0
  1  2  1  0  0  0  0
  2  3  1  0  0  0  0
  3  4  1  0  0  0  0
  3  5  1  0  0  0  0
  5  6  1  0  0  0  0
  5 10  1  0  0  0  0
  6  7  1  0  0  0  0
  7  8  1  0  0  0  0
  8  9  1  0  0  0  0
  8 11  1  0  0  0  0
  9 10  1  0  0  0  0
 11 12  1  0  0  0  0
M  END
> <Index>
8938

> <PropertyFieldDistance>
nan

$$$$
11947968
BBcorina  12272117083D 1   1.00000     0.00000 
CORINA 4.3.0 0026  30.10.2019
 15 16  0  0  0  0  0  0  0  0999 V2000
  -33.8071    7.7498  -42.2650 N   0  0  0  0  0  0  0  0  0  0  0  0
  -34.9562    6.9433  -41.8327 C   0  0  0  0  0  0  0  0  0  0  0  0
  -35.3833    6.0133  -42.9700 C   0  0  0  0  0  0  0  0  0  0  0  0
  -36.6554    5.2624  -42.5667 C   0  0  0  0  0  0  0  0  0  0  0  0
  -37.0433    4.2897  -43.6827 C   0  0  0  0  0  0  0  0  0  0  0  0
  -35.9454    3.3417  -43.9110 N   0  0  0  0  0  0  0  0  0  0  0  0
  -34.7262    4.0356  -44.3451 C   0  0  0  0  0  0  0  0  0  0  0  0
  -34.2691    5.0007  -43.2489 C   0  0  0  0  0  0  0  0  0  0  0  0
  -36.3354    2.3075  -44.8786 C   0  0  0  0  0  0  0  0  0  0  0  0
  -36.6897    2.9647  -46.2161 C   0  0  0  0  0  0  0  0  0  0  0  0
  -37.0182    1.8751  -47.2401 C   0  0  0  0  0  0  0  0  0  0  0  0
  -35.9029    0.9908  -47.3674 O   0  0  0  0  0  0  0  0  0  0  0  0
  -35.5558    0.3118  -46.1588 C   0  0  0  0  0  0  0  0  0  0  0  0
  -35.1682    1.3386  -45.0915 C   0  0  0  0  0  0  0  0  0  0  0  0
  -33.2966    8.8056  -41.0205 X   0  0  0  0  0  0  0  0  0  0  0  0
  1  2  1  0  0  0  0
  1 15  1  0  0  0  0
  2  3  1  0  0  0  0
  3  4  1  0  0  0  0
  3  8  1  0  0  0  0
  4  5  1  0  0  0  0
  5  6  1  0  0  0  0
  6  7  1  0  0  0  0
  6  9  1  0  0  0  0
  7  8  1  0  0  0  0
  9 10  1  0  0  0  0
  9 14  1  0  0  0  0
 10 11  1  0  0  0  0
 11 12  1  0  0  0  0
 12 13  1  0  0  0  0
 13 14  1  0  0  0  0
M  END
> <Index>
8955

> <PropertyFieldDistance>
nan

$$$$
6547900
BBcorina  12272117083D 1   1.00000     0.00000 
CORINA 4.3.0 0026  30.10.2019
 13 13  0  0  0  0  0  0  0  0999 V2000
  -33.4427    7.0746  -41.6493 C   0  0  0  0  0  0  0  0  0  0  0  0
  -34.8250    6.9570  -42.1324 N   0  0  0  0  0  0  0  0  0  0  0  0
  -35.0461    7.8093  -43.3082 C   0  0  0  0  0  0  0  0  0  0  0  0
  -35.1631    5.5578  -42.4254 C   0  0  0  0  0  0  0  0  0  0  0  0
  -36.6429    5.4576  -42.8054 C   0  0  0  0  0  0  0  0  0  0  0  0
  -36.9748    4.0080  -43.1668 C   0  0  0  0  0  0  0  0  0  0  0  0
  -36.1324    3.5770  -44.2897 N   0  0  0  0  0  0  0  0  0  0  0  0
  -36.5188    2.2379  -44.7539 C   0  0  0  0  0  0  0  0  0  0  0  0
  -35.7986    1.9261  -46.0674 C   0  0  0  0  0  0  0  0  0  0  0  0
  -36.1851    0.5870  -46.5316 N   0  0  0  0  0  0  0  0  0  0  0  0
  -34.7087    3.6195  -43.9322 C   0  0  0  0  0  0  0  0  0  0  0  0
  -34.3092    5.0575  -43.5936 C   0  0  0  0  0  0  0  0  0  0  0  0
  -35.4007    0.1977  -48.0005 X   0  0  0  0  0  0  0  0  0  0  0  0
  1  2  1  0  0  0  0
  2  3  1  0  0  0  0
  2  4  1  0  0  0  0
  4  5  1  0  0  0  0
  4 12  1  0  0  0  0
  5  6  1  0  0  0  0
  6  7  1  0  0  0  0
  7  8  1  0  0  0  0
  7 11  1  0  0  0  0
  8  9  1  0  0  0  0
  9 10  1  0  0  0  0
 10 13  1  0  0  0  0
 11 12  1  0  0  0  0
M  END
> <Index>
8965

> <PropertyFieldDistance>
nan

$$$$
9321878
BBcorina  12272117083D 1   1.00000     0.00000 
CORINA 4.3.0 0026  30.10.2019
 14 15  0  0  0  0  0  0  0  0999 V2000
  -34.9752    6.8852  -41.8695 N   0  0  0  0  0  0  0  0  0  0  0  0
  -35.3852    5.9990  -42.9670 C   0  0  0  0  0  0  0  0  0  0  0  0
  -36.6587    5.2473  -42.5693 C   0  0  0  0  0  0  0  0  0  0  0  0
  -37.0465    4.2816  -43.6912 C   0  0  0  0  0  0  0  0  0  0  0  0
  -35.9495    3.3335  -43.9238 N   0  0  0  0  0  0  0  0  0  0  0  0
  -34.7290    4.0284  -44.3527 C   0  0  0  0  0  0  0  0  0  0  0  0
  -34.2720    4.9867  -43.2505 C   0  0  0  0  0  0  0  0  0  0  0  0
  -36.3189    2.3602  -44.8457 C   0  0  0  0  0  0  0  0  0  0  0  0
  -35.4172    1.3603  -45.2081 C   0  0  0  0  0  0  0  0  0  0  0  0
  -35.8340    0.4143  -46.1313 C   0  0  0  0  0  0  0  0  0  0  0  0
  -37.1217    0.5201  -46.6377 C   0  0  0  0  0  0  0  0  0  0  0  0
  -37.9088    1.4993  -46.2387 N   0  0  0  0  0  0  0  0  0  0  0  0
  -37.5296    2.3788  -45.3843 N   0  0  0  0  0  0  0  0  0  0  0  0
  -34.6616    5.9921  -40.4454 X   0  0  0  0  0  0  0  0  0  0  0  0
  1  2  1  0  0  0  0
  1 14  1  0  0  0  0
  2  3  1  0  0  0  0
  2  7  1  0  0  0  0
  3  4  1  0  0  0  0
  4  5  1  0  0  0  0
  5  6  1  0  0  0  0
  5  8  1  0  0  0  0
  6  7  1  0  0  0  0
  8  9  2  0  0  0  0
  8 13  1  0  0  0  0
  9 10  1  0  0  0  0
 10 11  2  0  0  0  0
 11 12  1  0  0  0  0
 12 13  2  0  0  0  0
M  END
> <Index>
8968

> <PropertyFieldDistance>
nan

$$$$
11976474
BBcorina  12272117083D 1   1.00000     0.00000 
CORINA 4.3.0 0026  30.10.2019
 14 15  0  0  0  0  0  0  0  0999 V2000
  -36.3301    2.2172  -44.7677 C   0  0  0  0  0  0  0  0  0  0  0  0
  -35.9771    3.5200  -44.1982 N   0  0  0  0  0  0  0  0  0  0  0  0
  -37.0367    4.4118  -43.7322 C   0  0  0  0  0  0  0  0  0  0  0  0
  -36.6345    5.1031  -42.4318 C   0  0  0  0  0  0  0  0  0  0  0  0
  -35.2703    5.7248  -42.5735 C   0  0  0  0  0  0  0  0  0  0  0  0
  -34.9565    6.8852  -41.9072 C   0  0  0  0  0  0  0  0  0  0  0  0
  -33.6804    7.4314  -42.0254 C   0  0  0  0  0  0  0  0  0  0  0  0
  -33.3631    8.6035  -41.3479 N   0  0  0  0  0  0  0  0  0  0  0  0
  -32.7218    6.8077  -42.8189 C   0  0  0  0  0  0  0  0  0  0  0  0
  -33.0344    5.6508  -43.4980 C   0  0  0  0  0  0  0  0  0  0  0  0
  -34.3150    5.1096  -43.3910 C   0  0  0  0  0  0  0  0  0  0  0  0
  -34.6814    3.8761  -44.1122 C   0  0  0  0  0  0  0  0  0  0  0  0
  -33.8207    3.1869  -44.6250 O   0  0  0  0  0  0  0  0  0  0  0  0
  -34.5383    9.3718  -40.3719 X   0  0  0  0  0  0  0  0  0  0  0  0
  1  2  1  0  0  0  0
  2  3  1  0  0  0  0
  2 12  1  0  0  0  0
  3  4  1  0  0  0  0
  4  5  1  0  0  0  0
  5  6  2  0  0  0  0
  5 11  1  0  0  0  0
  6  7  1  0  0  0  0
  7  8  1  0  0  0  0
  7  9  2  0  0  0  0
  8 14  1  0  0  0  0
  9 10  1  0  0  0  0
 10 11  2  0  0  0  0
 11 12  1  0  0  0  0
 12 13  2  0  0  0  0
M  END
> <Index>
8969

> <PropertyFieldDistance>
nan

$$$$
8795228
BBcorina  12272117083D 1   1.00000     0.00000 
CORINA 4.3.0 0026  30.10.2019
 10 10  0  0  0  0  0  0  0  0999 V2000
  -35.1044    3.9406  -41.1840 C   0  0  0  0  0  0  0  0  0  0  0  0
  -35.2461    5.1675  -42.0870 C   0  0  0  0  0  0  0  0  0  0  0  0
  -34.9268    6.4322  -41.2874 C   0  0  0  0  0  0  0  0  0  0  0  0
  -33.5892    6.3565  -40.7902 O   0  0  0  0  0  0  0  0  0  0  0  0
  -36.6793    5.2476  -42.6202 C   0  0  0  0  0  0  0  0  0  0  0  0
  -36.9723    4.0087  -43.4695 C   0  0  0  0  0  0  0  0  0  0  0  0
  -36.0192    3.9414  -44.5845 N   0  0  0  0  0  0  0  0  0  0  0  0
  -34.6396    3.8164  -44.0970 C   0  0  0  0  0  0  0  0  0  0  0  0
  -34.2769    5.0496  -43.2665 C   0  0  0  0  0  0  0  0  0  0  0  0
  -36.4110    2.6622  -45.6494 X   0  0  0  0  0  0  0  0  0  0  0  0
  1  2  1  0  0  0  0
  2  3  1  0  0  0  0
  2  5  1  0  0  0  0
  2  9  1  0  0  0  0
  3  4  1  0  0  0  0
  5  6  1  0  0  0  0
  6  7  1  0  0  0  0
  7  8  1  0  0  0  0
  7 10  1  0  0  0  0
  8  9  1  0  0  0  0
M  END
> <Index>
8986

> <PropertyFieldDistance>
nan

$$$$
7533678
BBcorina  12272117083D 1   1.00000     0.00000 
CORINA 4.3.0 0026  30.10.2019
 12 12  0  0  0  0  0  0  0  0999 V2000
  -35.5500    0.5133  -44.4841 C   0  0  0  0  0  0  0  0  0  0  0  0
  -35.6532    1.5434  -45.6106 C   0  0  0  0  0  0  0  0  0  0  0  0
  -36.6351    2.6448  -45.2061 C   0  0  0  0  0  0  0  0  0  0  0  0
  -36.8336    3.6071  -46.3790 C   0  0  0  0  0  0  0  0  0  0  0  0
  -35.5607    4.0617  -46.8428 O   0  0  0  0  0  0  0  0  0  0  0  0
  -36.0977    3.3812  -44.0543 N   0  0  0  0  0  0  0  0  0  0  0  0
  -37.0828    4.3411  -43.5366 C   0  0  0  0  0  0  0  0  0  0  0  0
  -36.5158    5.0288  -42.2924 C   0  0  0  0  0  0  0  0  0  0  0  0
  -35.2581    5.7049  -42.6398 N   0  0  0  0  0  0  0  0  0  0  0  0
  -34.2731    4.7450  -43.1573 C   0  0  0  0  0  0  0  0  0  0  0  0
  -34.8399    4.0573  -44.4016 C   0  0  0  0  0  0  0  0  0  0  0  0
  -34.6325    6.5620  -41.2989 X   0  0  0  0  0  0  0  0  0  0  0  0
  1  2  1  0  0  0  0
  2  3  1  0  0  0  0
  3  4  1  0  0  0  0
  3  6  1  0  0  0  0
  4  5  1  0  0  0  0
  6  7  1  0  0  0  0
  6 11  1  0  0  0  0
  7  8  1  0  0  0  0
  8  9  1  0  0  0  0
  9 10  1  0  0  0  0
  9 12  1  0  0  0  0
 10 11  1  0  0  0  0
M  END
> <Index>
8991

> <PropertyFieldDistance>
nan

$$$$
6109332
BBcorina  12272117083D 1   1.00000     0.00000 
CORINA 4.3.0 0026  30.10.2019
 12 13  0  0  0  0  0  0  0  0999 V2000
  -36.0193    3.9412  -44.5845 N   0  0  0  0  0  0  0  0  0  0  0  0
  -36.9723    4.0084  -43.4693 C   0  0  0  0  0  0  0  0  0  0  0  0
  -36.6796    5.2477  -42.6204 C   0  0  0  0  0  0  0  0  0  0  0  0
  -35.2463    5.1684  -42.0875 C   0  0  0  0  0  0  0  0  0  0  0  0
  -34.2763    5.0495  -43.2662 C   0  0  0  0  0  0  0  0  0  0  0  0
  -34.6397    3.8168  -44.0973 C   0  0  0  0  0  0  0  0  0  0  0  0
  -34.9273    6.4334  -41.2883 C   0  0  0  0  0  0  0  0  0  0  0  0
  -35.7828    6.5035  -39.9982 C   0  0  0  0  0  0  0  0  0  0  0  0
  -34.9683    7.4118  -39.0540 C   0  0  0  0  0  0  0  0  0  0  0  0
  -33.5051    7.3366  -39.5241 C   0  0  0  0  0  0  0  0  0  0  0  0
  -33.4804    6.3845  -40.7376 C   0  0  0  0  0  0  0  0  0  0  0  0
  -36.4111    2.6614  -45.6489 X   0  0  0  0  0  0  0  0  0  0  0  0
  1  2  1  0  0  0  0
  1  6  1  0  0  0  0
  1 12  1  0  0  0  0
  2  3  1  0  0  0  0
  3  4  1  0  0  0  0
  4  5  1  0  0  0  0
  4  7  1  0  0  0  0
  5  6  1  0  0  0  0
  7  8  1  0  0  0  0
  7 11  1  0  0  0  0
  8  9  1  0  0  0  0
  9 10  1  0  0  0  0
 10 11  1  0  0  0  0
M  END
> <Index>
8997

> <PropertyFieldDistance>
nan

$$$$
6741278
BBcorina  12272117083D 1   1.00000     0.00000 
CORINA 4.3.0 0026  30.10.2019
 12 13  0  0  0  0  0  0  0  0999 V2000
  -39.0438    2.5515  -46.0695 C   0  0  0  0  0  0  0  0  0  0  0  0
  -37.9465    3.1510  -45.2283 C   0  0  0  0  0  0  0  0  0  0  0  0
  -38.1270    3.9269  -44.1574 N   0  0  0  0  0  0  0  0  0  0  0  0
  -36.9710    4.2739  -43.6657 C   0  0  0  0  0  0  0  0  0  0  0  0
  -36.6985    5.1412  -42.4610 C   0  0  0  0  0  0  0  0  0  0  0  0
  -35.2363    4.9361  -42.0439 C   0  0  0  0  0  0  0  0  0  0  0  0
  -34.3369    5.0637  -43.2771 C   0  0  0  0  0  0  0  0  0  0  0  0
  -34.5712    3.8677  -44.2070 C   0  0  0  0  0  0  0  0  0  0  0  0
  -36.0097    3.7171  -44.4270 N   0  0  0  0  0  0  0  0  0  0  0  0
  -36.6619    2.9953  -45.4306 N   0  0  0  0  0  0  0  0  0  0  0  0
  -37.5877    4.7516  -41.3584 N   0  0  0  0  0  0  0  0  0  0  0  0
  -37.3405    3.1174  -40.9201 X   0  0  0  0  0  0  0  0  0  0  0  0
  1  2  1  0  0  0  0
  2  3  1  0  0  0  0
  2 10  2  0  0  0  0
  3  4  2  0  0  0  0
  4  5  1  0  0  0  0
  4  9  1  0  0  0  0
  5  6  1  0  0  0  0
  5 11  1  0  0  0  0
  6  7  1  0  0  0  0
  7  8  1  0  0  0  0
  8  9  1  0  0  0  0
  9 10  1  0  0  0  0
 11 12  1  0  0  0  0
M  END
> <Index>
9008

> <PropertyFieldDistance>
nan

$$$$
6725830
BBcorina  12272117083D 1   1.00000     0.00000 
CORINA 4.3.0 0026  30.10.2019
 12 13  0  0  0  0  0  0  0  0999 V2000
  -35.9984    2.2184  -46.4946 C   0  0  0  0  0  0  0  0  0  0  0  0
  -36.6428    3.0218  -45.3945 C   0  0  0  0  0  0  0  0  0  0  0  0
  -37.9265    3.1779  -45.1953 N   0  0  0  0  0  0  0  0  0  0  0  0
  -38.1191    3.9260  -44.1634 N   0  0  0  0  0  0  0  0  0  0  0  0
  -36.9743    4.2774  -43.6632 C   0  0  0  0  0  0  0  0  0  0  0  0
  -36.7000    5.1423  -42.4586 C   0  0  0  0  0  0  0  0  0  0  0  0
  -35.2369    4.9359  -42.0444 C   0  0  0  0  0  0  0  0  0  0  0  0
  -34.3384    5.0636  -43.2780 C   0  0  0  0  0  0  0  0  0  0  0  0
  -34.5686    3.8661  -44.2074 C   0  0  0  0  0  0  0  0  0  0  0  0
  -36.0060    3.7142  -44.4306 N   0  0  0  0  0  0  0  0  0  0  0  0
  -37.5877    4.7518  -41.3552 N   0  0  0  0  0  0  0  0  0  0  0  0
  -39.0413    5.6516  -41.3904 X   0  0  0  0  0  0  0  0  0  0  0  0
  1  2  1  0  0  0  0
  2  3  2  0  0  0  0
  2 10  1  0  0  0  0
  3  4  1  0  0  0  0
  4  5  2  0  0  0  0
  5  6  1  0  0  0  0
  5 10  1  0  0  0  0
  6  7  1  0  0  0  0
  6 11  1  0  0  0  0
  7  8  1  0  0  0  0
  8  9  1  0  0  0  0
  9 10  1  0  0  0  0
 11 12  1  0  0  0  0
M  END
> <Index>
9009

> <PropertyFieldDistance>
nan

$$$$
7143278
BBcorina  12272117083D 1   1.00000     0.00000 
CORINA 4.3.0 0026  30.10.2019
 14 15  0  0  0  0  0  0  0  0999 V2000
  -35.3900   -0.0656  -46.3258 N   0  0  0  0  0  0  0  0  0  0  0  0
  -36.0899    1.0176  -47.0282 C   0  0  0  0  0  0  0  0  0  0  0  0
  -35.8178    2.3462  -46.3192 C   0  0  0  0  0  0  0  0  0  0  0  0
  -36.3041    2.2547  -44.8701 C   0  0  0  0  0  0  0  0  0  0  0  0
  -35.5956    1.0887  -44.1751 C   0  0  0  0  0  0  0  0  0  0  0  0
  -35.8738   -0.2036  -44.9463 C   0  0  0  0  0  0  0  0  0  0  0  0
  -35.9951    3.5034  -44.1690 N   0  0  0  0  0  0  0  0  0  0  0  0
  -37.1047    4.2654  -43.6097 C   0  0  0  0  0  0  0  0  0  0  0  0
  -36.5988    5.2370  -42.5402 C   0  0  0  0  0  0  0  0  0  0  0  0
  -35.4376    6.0476  -43.1282 C   0  0  0  0  0  0  0  0  0  0  0  0
  -34.2552    5.1029  -43.3572 C   0  0  0  0  0  0  0  0  0  0  0  0
  -34.7168    3.8743  -44.0870 C   0  0  0  0  0  0  0  0  0  0  0  0
  -33.8824    3.1825  -44.6313 O   0  0  0  0  0  0  0  0  0  0  0  0
  -35.5351   -1.5418  -47.1766 X   0  0  0  0  0  0  0  0  0  0  0  0
  1  2  1  0  0  0  0
  1  6  1  0  0  0  0
  1 14  1  0  0  0  0
  2  3  1  0  0  0  0
  3  4  1  0  0  0  0
  4  5  1  0  0  0  0
  4  7  1  0  0  0  0
  5  6  1  0  0  0  0
  7  8  1  0  0  0  0
  7 12  1  0  0  0  0
  8  9  1  0  0  0  0
  9 10  1  0  0  0  0
 10 11  1  0  0  0  0
 11 12  1  0  0  0  0
 12 13  2  0  0  0  0
M  END
> <Index>
9012

> <PropertyFieldDistance>
nan

$$$$
6198318
BBcorina  12272117083D 1   1.00000     0.00000 
CORINA 4.3.0 0026  30.10.2019
  8  8  0  0  0  0  0  0  0  0999 V2000
  -35.7514    4.2783  -45.5490 N   0  0  0  0  0  0  0  0  0  0  0  0
  -35.8139    3.9449  -44.1197 C   0  0  0  0  0  0  0  0  0  0  0  0
  -34.4386    3.4559  -43.6334 C   0  0  0  0  0  0  0  0  0  0  0  0
  -34.6023    2.8006  -42.2464 C   0  0  0  0  0  0  0  0  0  0  0  0
  -36.3200    2.1669  -42.2334 S   0  0  0  0  0  0  0  0  0  0  0  0
  -36.3007    0.7460  -42.2412 O   0  0  0  0  0  0  0  0  0  0  0  0
  -36.8135    2.7809  -43.8903 C   0  0  0  0  0  0  0  0  0  0  0  0
  -35.3032    2.9140  -46.4774 X   0  0  0  0  0  0  0  0  0  0  0  0
  1  2  1  0  0  0  0
  1  8  1  0  0  0  0
  2  3  1  0  0  0  0
  2  7  1  0  0  0  0
  3  4  1  0  0  0  0
  4  5  1  0  0  0  0
  5  6  2  0  0  0  0
  5  7  1  0  0  0  0
M  END
> <Index>
9035

> <PropertyFieldDistance>
nan

$$$$
8201378
BBcorina  12272117083D 1   1.00000     0.00000 
CORINA 4.3.0 0026  30.10.2019
  9  9  0  0  0  0  0  0  0  0999 V2000
  -33.8853    1.8831  -44.8115 N   0  0  0  0  0  0  0  0  0  0  0  0
  -34.7459    2.5602  -43.8323 C   0  0  0  0  0  0  0  0  0  0  0  0
  -36.1863    2.0941  -44.0222 C   0  0  0  0  0  0  0  0  0  0  0  0
  -37.0484    2.5704  -42.8501 C   0  0  0  0  0  0  0  0  0  0  0  0
  -37.0731    4.3877  -42.8401 S   0  0  0  0  0  0  0  0  0  0  0  0
  -37.6781    4.8598  -44.0360 O   0  0  0  0  0  0  0  0  0  0  0  0
  -35.3022    4.7966  -42.8548 C   0  0  0  0  0  0  0  0  0  0  0  0
  -34.6367    4.0697  -44.0263 C   0  0  0  0  0  0  0  0  0  0  0  0
  -34.3061    2.3278  -46.4081 X   0  0  0  0  0  0  0  0  0  0  0  0
  1  2  1  0  0  0  0
  1  9  1  0  0  0  0
  2  3  1  0  0  0  0
  2  8  1  0  0  0  0
  3  4  1  0  0  0  0
  4  5  1  0  0  0  0
  5  6  2  0  0  0  0
  5  7  1  0  0  0  0
  7  8  1  0  0  0  0
M  END
> <Index>
9039

> <PropertyFieldDistance>
nan

$$$$
6175208
BBcorina  12272117083D 1   1.00000     0.00000 
CORINA 4.3.0 0026  30.10.2019
 13 13  0  0  0  0  0  0  0  0999 V2000
  -36.7088    1.4400  -44.9980 C   0  0  0  0  0  0  0  0  0  0  0  0
  -36.0286    2.7017  -45.5332 C   0  0  0  0  0  0  0  0  0  0  0  0
  -36.9258    3.3578  -46.5846 C   0  0  0  0  0  0  0  0  0  0  0  0
  -35.8022    3.6394  -44.4307 N   0  0  0  0  0  0  0  0  0  0  0  0
  -36.8596    4.0869  -43.7453 C   0  0  0  0  0  0  0  0  0  0  0  0
  -37.9612    3.6761  -44.0430 O   0  0  0  0  0  0  0  0  0  0  0  0
  -36.7401    5.0776  -42.6219 C   0  0  0  0  0  0  0  0  0  0  0  0
  -35.3494    5.1358  -42.1525 N   0  0  0  0  0  0  0  0  0  0  0  0
  -34.4353    5.3217  -43.2883 C   0  0  0  0  0  0  0  0  0  0  0  0
  -34.4320    4.0436  -44.1289 C   0  0  0  0  0  0  0  0  0  0  0  0
  -33.7329    2.9264  -43.3516 C   0  0  0  0  0  0  0  0  0  0  0  0
  -33.6782    4.2977  -45.4360 C   0  0  0  0  0  0  0  0  0  0  0  0
  -34.9436    3.7331  -41.2626 X   0  0  0  0  0  0  0  0  0  0  0  0
  1  2  1  0  0  0  0
  2  3  1  0  0  0  0
  2  4  1  0  0  0  0
  4  5  1  0  0  0  0
  4 10  1  0  0  0  0
  5  6  2  0  0  0  0
  5  7  1  0  0  0  0
  7  8  1  0  0  0  0
  8  9  1  0  0  0  0
  8 13  1  0  0  0  0
  9 10  1  0  0  0  0
 10 11  1  0  0  0  0
 10 12  1  0  0  0  0
M  END
> <Index>
9042

> <PropertyFieldDistance>
nan

$$$$
13940408
BBcorina  12272117083D 1   1.00000     0.00000 
CORINA 4.3.0 0026  30.10.2019
 15 16  0  0  0  0  0  0  0  0999 V2000
  -34.6528    6.6056  -41.7403 N   0  0  0  0  0  0  0  0  0  0  0  0
  -35.2346    5.8725  -42.8725 C   0  0  0  0  0  0  0  0  0  0  0  0
  -36.5244    5.1793  -42.4246 C   0  0  0  0  0  0  0  0  0  0  0  0
  -37.0941    4.3693  -43.5915 C   0  0  0  0  0  0  0  0  0  0  0  0
  -36.1068    3.3727  -44.0255 N   0  0  0  0  0  0  0  0  0  0  0  0
  -36.6704    2.4856  -45.0517 C   0  0  0  0  0  0  0  0  0  0  0  0
  -35.5713    1.6435  -45.6464 C   0  0  0  0  0  0  0  0  0  0  0  0
  -35.2602    0.4180  -45.0876 C   0  0  0  0  0  0  0  0  0  0  0  0
  -34.2525   -0.3549  -45.6337 C   0  0  0  0  0  0  0  0  0  0  0  0
  -33.5560    0.0977  -46.7386 C   0  0  0  0  0  0  0  0  0  0  0  0
  -33.8662    1.3238  -47.2966 C   0  0  0  0  0  0  0  0  0  0  0  0
  -34.8744    2.0963  -46.7511 C   0  0  0  0  0  0  0  0  0  0  0  0
  -34.8772    4.0170  -44.5045 C   0  0  0  0  0  0  0  0  0  0  0  0
  -34.2413    4.8164  -43.3649 C   0  0  0  0  0  0  0  0  0  0  0  0
  -34.1849    5.5344  -40.4921 X   0  0  0  0  0  0  0  0  0  0  0  0
  1  2  1  0  0  0  0
  1 15  1  0  0  0  0
  2  3  1  0  0  0  0
  2 14  1  0  0  0  0
  3  4  1  0  0  0  0
  4  5  1  0  0  0  0
  5  6  1  0  0  0  0
  5 13  1  0  0  0  0
  6  7  1  0  0  0  0
  7  8  2  0  0  0  0
  7 12  1  0  0  0  0
  8  9  1  0  0  0  0
  9 10  2  0  0  0  0
 10 11  1  0  0  0  0
 11 12  2  0  0  0  0
 13 14  1  0  0  0  0
M  END
> <Index>
9048

> <PropertyFieldDistance>
nan

$$$$
8693794
BBcorina  12272117083D 1   1.00000     0.00000 
CORINA 4.3.0 0026  30.10.2019
 10 10  0  0  0  0  0  0  0  0999 V2000
  -36.1463    4.0911  -43.1155 C   0  0  0  0  0  0  0  0  0  0  0  0
  -36.0172    3.5927  -44.4913 N   0  0  0  0  0  0  0  0  0  0  0  0
  -36.3933    2.1751  -44.5752 C   0  0  0  0  0  0  0  0  0  0  0  0
  -36.1059    1.6538  -45.9847 C   0  0  0  0  0  0  0  0  0  0  0  0
  -34.5956    1.6910  -46.2501 C   0  0  0  0  0  0  0  0  0  0  0  0
  -34.3487    1.3341  -47.7175 C   0  0  0  0  0  0  0  0  0  0  0  0
  -35.1026    0.0868  -48.0790 C   0  0  0  0  0  0  0  0  0  0  0  0
  -36.0750   -0.4030  -47.3790 C   0  0  0  0  0  0  0  0  0  0  0  0
  -36.5826    0.2046  -46.1042 C   0  0  0  0  0  0  0  0  0  0  0  0
  -36.9433    4.5375  -45.5748 X   0  0  0  0  0  0  0  0  0  0  0  0
  1  2  1  0  0  0  0
  2  3  1  0  0  0  0
  2 10  1  0  0  0  0
  3  4  1  0  0  0  0
  4  5  1  0  0  0  0
  4  9  1  0  0  0  0
  5  6  1  0  0  0  0
  6  7  1  0  0  0  0
  7  8  2  0  0  0  0
  8  9  1  0  0  0  0
M  END
> <Index>
9054

> <PropertyFieldDistance>
nan

$$$$
16713690
BBcorina  12272117083D 1   1.00000     0.00000 
CORINA 4.3.0 0026  30.10.2019
 12 13  0  0  0  0  0  0  0  0999 V2000
  -36.0194    3.9412  -44.5845 N   0  0  0  0  0  0  0  0  0  0  0  0
  -36.9724    4.0084  -43.4693 C   0  0  0  0  0  0  0  0  0  0  0  0
  -36.6796    5.2477  -42.6204 C   0  0  0  0  0  0  0  0  0  0  0  0
  -35.2463    5.1683  -42.0875 C   0  0  0  0  0  0  0  0  0  0  0  0
  -34.2763    5.0495  -43.2662 C   0  0  0  0  0  0  0  0  0  0  0  0
  -34.6397    3.8167  -44.0973 C   0  0  0  0  0  0  0  0  0  0  0  0
  -34.9320    6.4144  -41.3003 C   0  0  0  0  0  0  0  0  0  0  0  0
  -34.5837    6.4433  -40.0131 C   0  0  0  0  0  0  0  0  0  0  0  0
  -34.3429    7.7071  -39.5021 C   0  0  0  0  0  0  0  0  0  0  0  0
  -34.5008    8.7049  -40.3732 C   0  0  0  0  0  0  0  0  0  0  0  0
  -34.9693    8.0531  -41.9382 S   0  0  0  0  0  0  0  0  0  0  0  0
  -36.4111    2.6615  -45.6489 X   0  0  0  0  0  0  0  0  0  0  0  0
  1  2  1  0  0  0  0
  1  6  1  0  0  0  0
  1 12  1  0  0  0  0
  2  3  1  0  0  0  0
  3  4  1  0  0  0  0
  4  5  1  0  0  0  0
  4  7  1  0  0  0  0
  5  6  1  0  0  0  0
  7  8  2  0  0  0  0
  7 11  1  0  0  0  0
  8  9  1  0  0  0  0
  9 10  2  0  0  0  0
 10 11  1  0  0  0  0
M  END
> <Index>
9093

> <PropertyFieldDistance>
nan

$$$$
6166698
BBcorina  12272117083D 1   1.00000     0.00000 
CORINA 4.3.0 0026  30.10.2019
 13 13  0  0  0  0  0  0  0  0999 V2000
  -34.8324    5.5467  -40.3675 C   0  0  0  0  0  0  0  0  0  0  0  0
  -34.9622    6.5319  -41.4494 N   0  0  0  0  0  0  0  0  0  0  0  0
  -35.9125    7.5913  -41.0854 C   0  0  0  0  0  0  0  0  0  0  0  0
  -35.6600    8.8239  -41.9559 C   0  0  0  0  0  0  0  0  0  0  0  0
  -34.3145    9.1949  -41.8599 F   0  0  0  0  0  0  0  0  0  0  0  0
  -35.9677    8.5254  -43.2875 F   0  0  0  0  0  0  0  0  0  0  0  0
  -35.3535    5.8832  -42.7079 C   0  0  0  0  0  0  0  0  0  0  0  0
  -36.6585    5.1099  -42.5008 C   0  0  0  0  0  0  0  0  0  0  0  0
  -37.0291    4.3869  -43.7977 C   0  0  0  0  0  0  0  0  0  0  0  0
  -35.9479    3.4664  -44.1723 N   0  0  0  0  0  0  0  0  0  0  0  0
  -34.6958    4.1916  -44.4226 C   0  0  0  0  0  0  0  0  0  0  0  0
  -34.2559    4.9088  -43.1443 C   0  0  0  0  0  0  0  0  0  0  0  0
  -36.3899    2.5211  -45.5271 X   0  0  0  0  0  0  0  0  0  0  0  0
  1  2  1  0  0  0  0
  2  3  1  0  0  0  0
  2  7  1  0  0  0  0
  3  4  1  0  0  0  0
  4  5  1  0  0  0  0
  4  6  1  0  0  0  0
  7  8  1  0  0  0  0
  7 12  1  0  0  0  0
  8  9  1  0  0  0  0
  9 10  1  0  0  0  0
 10 11  1  0  0  0  0
 10 13  1  0  0  0  0
 11 12  1  0  0  0  0
M  END
> <Index>
9102

> <PropertyFieldDistance>
nan

$$$$
17650974
BBcorina  12272117083D 1   1.00000     0.00000 
CORINA 4.3.0 0026  30.10.2019
 15 16  0  0  0  0  0  0  0  0999 V2000
  -33.4288    7.0909  -41.6347 N   0  0  0  0  0  0  0  0  0  0  0  0
  -34.8145    7.0119  -42.1159 C   0  0  0  0  0  0  0  0  0  0  0  0
  -35.1650    5.5548  -42.4241 C   0  0  0  0  0  0  0  0  0  0  0  0
  -36.6444    5.4542  -42.8061 C   0  0  0  0  0  0  0  0  0  0  0  0
  -36.9747    4.0050  -43.1705 C   0  0  0  0  0  0  0  0  0  0  0  0
  -36.1305    3.5765  -44.2930 N   0  0  0  0  0  0  0  0  0  0  0  0
  -36.5153    2.2379  -44.7601 C   0  0  0  0  0  0  0  0  0  0  0  0
  -35.8041    1.9335  -46.0534 C   0  0  0  0  0  0  0  0  0  0  0  0
  -36.3435    2.2423  -47.2903 C   0  0  0  0  0  0  0  0  0  0  0  0
  -35.5823    1.9102  -48.3342 C   0  0  0  0  0  0  0  0  0  0  0  0
  -34.1007    1.1517  -47.7660 S   0  0  0  0  0  0  0  0  0  0  0  0
  -34.6096    1.3410  -46.0932 C   0  0  0  0  0  0  0  0  0  0  0  0
  -34.7073    3.6195  -43.9338 C   0  0  0  0  0  0  0  0  0  0  0  0
  -34.3093    5.0572  -43.5922 C   0  0  0  0  0  0  0  0  0  0  0  0
  -32.9952    8.7060  -41.2778 X   0  0  0  0  0  0  0  0  0  0  0  0
  1  2  1  0  0  0  0
  1 15  1  0  0  0  0
  2  3  1  0  0  0  0
  3  4  1  0  0  0  0
  3 14  1  0  0  0  0
  4  5  1  0  0  0  0
  5  6  1  0  0  0  0
  6  7  1  0  0  0  0
  6 13  1  0  0  0  0
  7  8  1  0  0  0  0
  8  9  1  0  0  0  0
  8 12  2  0  0  0  0
  9 10  2  0  0  0  0
 10 11  1  0  0  0  0
 11 12  1  0  0  0  0
 13 14  1  0  0  0  0
M  END
> <Index>
9120

> <PropertyFieldDistance>
nan

$$$$
6814570
BBcorina  12272117083D 1   1.00000     0.00000 
CORINA 4.3.0 0026  30.10.2019
 13 13  0  0  0  0  0  0  0  0999 V2000
  -34.3782    1.2062  -47.7122 C   0  0  0  0  0  0  0  0  0  0  0  0
  -35.4714    2.0114  -47.0069 C   0  0  0  0  0  0  0  0  0  0  0  0
  -35.5838    1.5531  -45.5515 C   0  0  0  0  0  0  0  0  0  0  0  0
  -36.0419    0.1579  -45.5115 N   0  0  0  0  0  0  0  0  0  0  0  0
  -36.5726    2.4275  -44.8245 C   0  0  0  0  0  0  0  0  0  0  0  0
  -37.7066    2.0381  -44.6414 O   0  0  0  0  0  0  0  0  0  0  0  0
  -36.1969    3.6423  -44.3777 N   0  0  0  0  0  0  0  0  0  0  0  0
  -37.1447    4.5138  -43.6652 C   0  0  0  0  0  0  0  0  0  0  0  0
  -36.4837    4.9864  -42.3653 C   0  0  0  0  0  0  0  0  0  0  0  0
  -35.2049    5.5506  -42.6656 O   0  0  0  0  0  0  0  0  0  0  0  0
  -34.2786    4.6270  -43.2425 C   0  0  0  0  0  0  0  0  0  0  0  0
  -34.8251    4.1338  -44.5824 C   0  0  0  0  0  0  0  0  0  0  0  0
  -37.5716   -0.0064  -46.2579 X   0  0  0  0  0  0  0  0  0  0  0  0
  1  2  1  0  0  0  0
  2  3  1  0  0  0  0
  3  4  1  0  0  0  0
  3  5  1  0  0  0  0
  4 13  1  0  0  0  0
  5  6  2  0  0  0  0
  5  7  1  0  0  0  0
  7  8  1  0  0  0  0
  7 12  1  0  0  0  0
  8  9  1  0  0  0  0
  9 10  1  0  0  0  0
 10 11  1  0  0  0  0
 11 12  1  0  0  0  0
M  END
> <Index>
9122

> <PropertyFieldDistance>
nan

$$$$
11971632
BBcorina  12272117083D 1   1.00000     0.00000 
CORINA 4.3.0 0026  30.10.2019
 12 12  0  0  0  0  0  0  0  0999 V2000
  -37.9815    5.3517  -41.9905 C   0  0  0  0  0  0  0  0  0  0  0  0
  -36.8371    5.1918  -42.9932 C   0  0  0  0  0  0  0  0  0  0  0  0
  -36.8468    3.7691  -43.5587 C   0  0  0  0  0  0  0  0  0  0  0  0
  -35.7000    3.5988  -44.4627 N   0  0  0  0  0  0  0  0  0  0  0  0
  -35.7040    2.2621  -45.0721 C   0  0  0  0  0  0  0  0  0  0  0  0
  -37.1101    1.9377  -45.5806 C   0  0  0  0  0  0  0  0  0  0  0  0
  -37.1140    0.6011  -46.1899 N   0  0  0  0  0  0  0  0  0  0  0  0
  -34.4366    3.8512  -43.7546 C   0  0  0  0  0  0  0  0  0  0  0  0
  -34.2821    2.8464  -42.6112 C   0  0  0  0  0  0  0  0  0  0  0  0
  -34.4510    5.2731  -43.1872 C   0  0  0  0  0  0  0  0  0  0  0  0
  -35.5894    5.4296  -42.3358 O   0  0  0  0  0  0  0  0  0  0  0  0
  -38.6703    0.1979  -46.7728 X   0  0  0  0  0  0  0  0  0  0  0  0
  1  2  1  0  0  0  0
  2  3  1  0  0  0  0
  2 11  1  0  0  0  0
  3  4  1  0  0  0  0
  4  5  1  0  0  0  0
  4  8  1  0  0  0  0
  5  6  1  0  0  0  0
  6  7  1  0  0  0  0
  7 12  1  0  0  0  0
  8  9  1  0  0  0  0
  8 10  1  0  0  0  0
 10 11  1  0  0  0  0
M  END
> <Index>
9131

> <PropertyFieldDistance>
nan

$$$$
12626486
BBcorina  12272117083D 1   1.00000     0.00000 
CORINA 4.3.0 0026  30.10.2019
 16 16  0  0  0  0  0  0  0  0999 V2000
  -39.5520    0.3891  -45.3712 C   0  0  0  0  0  0  0  0  0  0  0  0
  -38.2793   -0.2844  -45.8887 C   0  0  0  0  0  0  0  0  0  0  0  0
  -38.6017   -1.0785  -47.1561 C   0  0  0  0  0  0  0  0  0  0  0  0
  -37.7324   -1.2314  -44.8187 C   0  0  0  0  0  0  0  0  0  0  0  0
  -37.2848    0.7289  -46.1923 O   0  0  0  0  0  0  0  0  0  0  0  0
  -36.8897    1.5176  -45.1804 C   0  0  0  0  0  0  0  0  0  0  0  0
  -37.3595    1.3661  -44.0776 O   0  0  0  0  0  0  0  0  0  0  0  0
  -35.8603    2.5918  -45.4201 C   0  0  0  0  0  0  0  0  0  0  0  0
  -35.7111    3.4064  -44.2067 N   0  0  0  0  0  0  0  0  0  0  0  0
  -36.9377    4.1638  -43.9273 C   0  0  0  0  0  0  0  0  0  0  0  0
  -36.7992    4.8843  -42.5843 C   0  0  0  0  0  0  0  0  0  0  0  0
  -35.5952    5.8287  -42.6391 C   0  0  0  0  0  0  0  0  0  0  0  0
  -34.3388    5.0222  -42.9793 C   0  0  0  0  0  0  0  0  0  0  0  0
  -34.5488    4.2977  -44.3109 C   0  0  0  0  0  0  0  0  0  0  0  0
  -35.4230    6.4808  -41.3341 N   0  0  0  0  0  0  0  0  0  0  0  0
  -35.0488    5.3351  -40.1211 X   0  0  0  0  0  0  0  0  0  0  0  0
  1  2  1  0  0  0  0
  2  3  1  0  0  0  0
  2  4  1  0  0  0  0
  2  5  1  0  0  0  0
  5  6  1  0  0  0  0
  6  7  2  0  0  0  0
  6  8  1  0  0  0  0
  8  9  1  0  0  0  0
  9 10  1  0  0  0  0
  9 14  1  0  0  0  0
 10 11  1  0  0  0  0
 11 12  1  0  0  0  0
 12 13  1  0  0  0  0
 12 15  1  0  0  0  0
 13 14  1  0  0  0  0
 15 16  1  0  0  0  0
M  END
> <Index>
9138

> <PropertyFieldDistance>
nan

$$$$
13161982
BBcorina  12272117083D 1   1.00000     0.00000 
CORINA 4.3.0 0026  30.10.2019
 11 11  0  0  0  0  0  0  0  0999 V2000
  -34.8334    6.9491  -42.1235 N   0  0  0  0  0  0  0  0  0  0  0  0
  -35.1680    5.5503  -42.4222 C   0  0  0  0  0  0  0  0  0  0  0  0
  -36.6465    5.4489  -42.8073 C   0  0  0  0  0  0  0  0  0  0  0  0
  -36.9744    4.0003  -43.1761 C   0  0  0  0  0  0  0  0  0  0  0  0
  -36.1276    3.5757  -44.2981 N   0  0  0  0  0  0  0  0  0  0  0  0
  -36.5099    2.2379  -44.7694 C   0  0  0  0  0  0  0  0  0  0  0  0
  -35.8125    1.9447  -46.0321 C   0  0  0  0  0  0  0  0  0  0  0  0
  -35.2562    1.7108  -47.0392 C   0  0  0  0  0  0  0  0  0  0  0  0
  -34.7051    3.6195  -43.9361 C   0  0  0  0  0  0  0  0  0  0  0  0
  -34.3095    5.0568  -43.5900 C   0  0  0  0  0  0  0  0  0  0  0  0
  -35.2175    7.9664  -43.4433 X   0  0  0  0  0  0  0  0  0  0  0  0
  1  2  1  0  0  0  0
  1 11  1  0  0  0  0
  2  3  1  0  0  0  0
  2 10  1  0  0  0  0
  3  4  1  0  0  0  0
  4  5  1  0  0  0  0
  5  6  1  0  0  0  0
  5  9  1  0  0  0  0
  6  7  1  0  0  0  0
  7  8  3  0  0  0  0
  9 10  1  0  0  0  0
M  END
> <Index>
9139

> <PropertyFieldDistance>
nan

$$$$
9433920
BBcorina  12272117083D 1   1.00000     0.00000 
CORINA 4.3.0 0026  30.10.2019
 12 12  0  0  0  0  0  0  0  0999 V2000
  -37.0999    7.3567  -41.2655 C   0  0  0  0  0  0  0  0  0  0  0  0
  -37.4025    5.8904  -41.5806 C   0  0  0  0  0  0  0  0  0  0  0  0
  -36.5871    5.4517  -42.7986 C   0  0  0  0  0  0  0  0  0  0  0  0
  -36.9795    4.0244  -43.1894 C   0  0  0  0  0  0  0  0  0  0  0  0
  -36.1383    3.5800  -44.3103 N   0  0  0  0  0  0  0  0  0  0  0  0
  -36.5209    2.2327  -44.7536 C   0  0  0  0  0  0  0  0  0  0  0  0
  -35.7990    1.9020  -46.0615 C   0  0  0  0  0  0  0  0  0  0  0  0
  -36.1815    0.5548  -46.5048 N   0  0  0  0  0  0  0  0  0  0  0  0
  -34.7148    3.6307  -43.9467 C   0  0  0  0  0  0  0  0  0  0  0  0
  -34.3459    5.0623  -43.5489 C   0  0  0  0  0  0  0  0  0  0  0  0
  -35.1936    5.4878  -42.4786 O   0  0  0  0  0  0  0  0  0  0  0  0
  -35.3953    0.1444  -47.9668 X   0  0  0  0  0  0  0  0  0  0  0  0
  1  2  1  0  0  0  0
  2  3  1  0  0  0  0
  3  4  1  0  0  0  0
  3 11  1  0  0  0  0
  4  5  1  0  0  0  0
  5  6  1  0  0  0  0
  5  9  1  0  0  0  0
  6  7  1  0  0  0  0
  7  8  1  0  0  0  0
  8 12  1  0  0  0  0
  9 10  1  0  0  0  0
 10 11  1  0  0  0  0
M  END
> <Index>
9142

> <PropertyFieldDistance>
nan

$$$$
7106458
BBcorina  12272117083D 1   1.00000     0.00000 
CORINA 4.3.0 0026  30.10.2019
 13 13  0  0  0  0  0  0  0  0999 V2000
  -35.7509    1.9097  -46.0357 C   0  0  0  0  0  0  0  0  0  0  0  0
  -36.5498    2.2607  -44.7789 C   0  0  0  0  0  0  0  0  0  0  0  0
  -36.2731    1.2203  -43.6917 C   0  0  0  0  0  0  0  0  0  0  0  0
  -36.1484    3.5896  -44.2987 N   0  0  0  0  0  0  0  0  0  0  0  0
  -36.9776    4.0111  -43.1625 C   0  0  0  0  0  0  0  0  0  0  0  0
  -36.6306    5.4525  -42.7830 C   0  0  0  0  0  0  0  0  0  0  0  0
  -35.1467    5.5350  -42.4144 C   0  0  0  0  0  0  0  0  0  0  0  0
  -34.8919    4.7136  -41.2732 O   0  0  0  0  0  0  0  0  0  0  0  0
  -34.7796    6.9852  -42.0928 C   0  0  0  0  0  0  0  0  0  0  0  0
  -33.3331    7.0831  -41.8561 N   0  0  0  0  0  0  0  0  0  0  0  0
  -34.3070    5.0449  -43.5972 C   0  0  0  0  0  0  0  0  0  0  0  0
  -34.7213    3.6153  -43.9530 C   0  0  0  0  0  0  0  0  0  0  0  0
  -32.8791    8.6911  -41.4925 X   0  0  0  0  0  0  0  0  0  0  0  0
  1  2  1  0  0  0  0
  2  3  1  0  0  0  0
  2  4  1  0  0  0  0
  4  5  1  0  0  0  0
  4 12  1  0  0  0  0
  5  6  1  0  0  0  0
  6  7  1  0  0  0  0
  7  8  1  0  0  0  0
  7  9  1  0  0  0  0
  7 11  1  0  0  0  0
  9 10  1  0  0  0  0
 10 13  1  0  0  0  0
 11 12  1  0  0  0  0
M  END
> <Index>
9167

> <PropertyFieldDistance>
nan

$$$$
16784270
BBcorina  12272117083D 1   1.00000     0.00000 
CORINA 4.3.0 0026  30.10.2019
  9 10  0  0  0  0  0  0  0  0999 V2000
  -35.9887    1.0353  -46.2573 N   0  0  0  0  0  0  0  0  0  0  0  0
  -35.1921    1.4095  -45.0679 C   0  0  0  0  0  0  0  0  0  0  0  0
  -36.3883    2.2941  -44.6727 C   0  0  0  0  0  0  0  0  0  0  0  0
  -36.7536    2.3027  -46.1681 C   0  0  0  0  0  0  0  0  0  0  0  0
  -36.0021    3.6119  -44.1508 N   0  0  0  0  0  0  0  0  0  0  0  0
  -37.1917    4.4243  -43.8344 C   0  0  0  0  0  0  0  0  0  0  0  0
  -36.4691    4.8856  -42.5609 C   0  0  0  0  0  0  0  0  0  0  0  0
  -35.7297    3.5477  -42.7028 C   0  0  0  0  0  0  0  0  0  0  0  0
  -35.0146    1.0050  -47.6625 X   0  0  0  0  0  0  0  0  0  0  0  0
  1  2  1  0  0  0  0
  1  4  1  0  0  0  0
  1  9  1  0  0  0  0
  2  3  1  0  0  0  0
  3  4  1  0  0  0  0
  3  5  1  0  0  0  0
  5  6  1  0  0  0  0
  5  8  1  0  0  0  0
  6  7  1  0  0  0  0
  7  8  1  0  0  0  0
M  END
> <Index>
9186

> <PropertyFieldDistance>
nan

$$$$
9046808
BBcorina  12272117083D 1   1.00000     0.00000 
CORINA 4.3.0 0026  30.10.2019
 15 15  0  0  0  0  0  0  0  0999 V2000
  -34.2902   -0.6720  -45.6635 C   0  0  0  0  0  0  0  0  0  0  0  0
  -35.5489    0.0554  -45.1866 C   0  0  0  0  0  0  0  0  0  0  0  0
  -35.2356    1.4507  -44.9353 O   0  0  0  0  0  0  0  0  0  0  0  0
  -36.2420    2.2354  -44.5063 C   0  0  0  0  0  0  0  0  0  0  0  0
  -37.3517    1.7672  -44.3461 O   0  0  0  0  0  0  0  0  0  0  0  0
  -36.0186    3.5405  -44.2544 N   0  0  0  0  0  0  0  0  0  0  0  0
  -37.1066    4.4094  -43.7857 C   0  0  0  0  0  0  0  0  0  0  0  0
  -36.6631    5.1082  -42.4966 C   0  0  0  0  0  0  0  0  0  0  0  0
  -35.3376    5.8366  -42.7497 C   0  0  0  0  0  0  0  0  0  0  0  0
  -34.2623    4.8230  -43.1474 C   0  0  0  0  0  0  0  0  0  0  0  0
  -34.6821    4.1211  -44.4428 C   0  0  0  0  0  0  0  0  0  0  0  0
  -34.9056    6.5643  -41.4750 C   0  0  0  0  0  0  0  0  0  0  0  0
  -35.9804    7.5778  -41.0770 C   0  0  0  0  0  0  0  0  0  0  0  0
  -33.6374    7.2651  -41.7171 N   0  0  0  0  0  0  0  0  0  0  0  0
  -33.8016    8.4123  -42.9744 X   0  0  0  0  0  0  0  0  0  0  0  0
  1  2  1  0  0  0  0
  2  3  1  0  0  0  0
  3  4  1  0  0  0  0
  4  5  2  0  0  0  0
  4  6  1  0  0  0  0
  6  7  1  0  0  0  0
  6 11  1  0  0  0  0
  7  8  1  0  0  0  0
  8  9  1  0  0  0  0
  9 10  1  0  0  0  0
  9 12  1  0  0  0  0
 10 11  1  0  0  0  0
 12 13  1  0  0  0  0
 12 14  1  0  0  0  0
 14 15  1  0  0  0  0
M  END
> <Index>
9195

> <PropertyFieldDistance>
nan

$$$$
9140572
BBcorina  12272117083D 1   1.00000     0.00000 
CORINA 4.3.0 0026  30.10.2019
 14 14  0  0  0  0  0  0  0  0999 V2000
  -35.5489    0.0554  -45.1866 C   0  0  0  0  0  0  0  0  0  0  0  0
  -35.2356    1.4507  -44.9353 O   0  0  0  0  0  0  0  0  0  0  0  0
  -36.2420    2.2354  -44.5063 C   0  0  0  0  0  0  0  0  0  0  0  0
  -37.3517    1.7672  -44.3461 O   0  0  0  0  0  0  0  0  0  0  0  0
  -36.0186    3.5405  -44.2544 N   0  0  0  0  0  0  0  0  0  0  0  0
  -37.1066    4.4094  -43.7857 C   0  0  0  0  0  0  0  0  0  0  0  0
  -36.6631    5.1082  -42.4966 C   0  0  0  0  0  0  0  0  0  0  0  0
  -35.3376    5.8366  -42.7497 C   0  0  0  0  0  0  0  0  0  0  0  0
  -34.2623    4.8230  -43.1474 C   0  0  0  0  0  0  0  0  0  0  0  0
  -34.6821    4.1211  -44.4428 C   0  0  0  0  0  0  0  0  0  0  0  0
  -34.9056    6.5643  -41.4750 C   0  0  0  0  0  0  0  0  0  0  0  0
  -35.9804    7.5778  -41.0770 C   0  0  0  0  0  0  0  0  0  0  0  0
  -33.6374    7.2651  -41.7171 N   0  0  0  0  0  0  0  0  0  0  0  0
  -33.8016    8.4123  -42.9744 X   0  0  0  0  0  0  0  0  0  0  0  0
  1  2  1  0  0  0  0
  2  3  1  0  0  0  0
  3  4  2  0  0  0  0
  3  5  1  0  0  0  0
  5  6  1  0  0  0  0
  5 10  1  0  0  0  0
  6  7  1  0  0  0  0
  7  8  1  0  0  0  0
  8  9  1  0  0  0  0
  8 11  1  0  0  0  0
  9 10  1  0  0  0  0
 11 12  1  0  0  0  0
 11 13  1  0  0  0  0
 13 14  1  0  0  0  0
M  END
> <Index>
9196

> <PropertyFieldDistance>
nan

$$$$
7964916
BBcorina  12272117083D 1   1.00000     0.00000 
CORINA 4.3.0 0026  30.10.2019
 13 13  0  0  0  0  0  0  0  0999 V2000
  -39.4217    4.2521  -43.3594 C   0  0  0  0  0  0  0  0  0  0  0  0
  -38.2307    3.2923  -43.3265 C   0  0  0  0  0  0  0  0  0  0  0  0
  -36.9552    4.0494  -43.7017 C   0  0  0  0  0  0  0  0  0  0  0  0
  -36.6851    5.1413  -42.6639 C   0  0  0  0  0  0  0  0  0  0  0  0
  -35.4387    5.8408  -43.0058 N   0  0  0  0  0  0  0  0  0  0  0  0
  -34.3049    4.9064  -43.0361 C   0  0  0  0  0  0  0  0  0  0  0  0
  -34.5750    3.8144  -44.0739 C   0  0  0  0  0  0  0  0  0  0  0  0
  -35.8214    3.1148  -43.7321 N   0  0  0  0  0  0  0  0  0  0  0  0
  -36.0764    2.0080  -44.6636 C   0  0  0  0  0  0  0  0  0  0  0  0
  -36.4992    2.5715  -46.0217 C   0  0  0  0  0  0  0  0  0  0  0  0
  -37.7373    3.2108  -45.8963 F   0  0  0  0  0  0  0  0  0  0  0  0
  -35.5421    3.4912  -46.4635 F   0  0  0  0  0  0  0  0  0  0  0  0
  -35.1419    7.1293  -41.9213 X   0  0  0  0  0  0  0  0  0  0  0  0
  1  2  1  0  0  0  0
  2  3  1  0  0  0  0
  3  4  1  0  0  0  0
  3  8  1  0  0  0  0
  4  5  1  0  0  0  0
  5  6  1  0  0  0  0
  5 13  1  0  0  0  0
  6  7  1  0  0  0  0
  7  8  1  0  0  0  0
  8  9  1  0  0  0  0
  9 10  1  0  0  0  0
 10 11  1  0  0  0  0
 10 12  1  0  0  0  0
M  END
> <Index>
9200

> <PropertyFieldDistance>
nan

$$$$
17318880
BBcorina  12272117083D 1   1.00000     0.00000 
CORINA 4.3.0 0026  30.10.2019
 10 10  0  0  0  0  0  0  0  0999 V2000
  -32.0311    5.3045  -44.0072 C   0  0  0  0  0  0  0  0  0  0  0  0
  -32.9174    5.0719  -42.8590 N   0  0  0  0  0  0  0  0  0  0  0  0
  -34.3266    5.0702  -43.2735 C   0  0  0  0  0  0  0  0  0  0  0  0
  -35.2263    4.9503  -42.0375 C   0  0  0  0  0  0  0  0  0  0  0  0
  -36.6807    5.1344  -42.4780 C   0  0  0  0  0  0  0  0  0  0  0  0
  -36.9693    4.2612  -43.6652 C   0  0  0  0  0  0  0  0  0  0  0  0
  -38.1280    4.0335  -43.9420 O   0  0  0  0  0  0  0  0  0  0  0  0
  -36.0200    3.7231  -44.4316 N   0  0  0  0  0  0  0  0  0  0  0  0
  -34.5907    3.8747  -44.1894 C   0  0  0  0  0  0  0  0  0  0  0  0
  -32.5127    3.6166  -42.0574 X   0  0  0  0  0  0  0  0  0  0  0  0
  1  2  1  0  0  0  0
  2  3  1  0  0  0  0
  2 10  1  0  0  0  0
  3  4  1  0  0  0  0
  3  9  1  0  0  0  0
  4  5  1  0  0  0  0
  5  6  1  0  0  0  0
  6  7  2  0  0  0  0
  6  8  1  0  0  0  0
  8  9  1  0  0  0  0
M  END
> <Index>
9208

> <PropertyFieldDistance>
nan

$$$$
7690128
BBcorina  12272117083D 1   1.00000     0.00000 
CORINA 4.3.0 0026  30.10.2019
 14 14  0  0  0  0  0  0  0  0999 V2000
  -35.9101   -1.5760  -47.6665 C   0  0  0  0  0  0  0  0  0  0  0  0
  -35.2829   -0.5479  -46.8252 N   0  0  0  0  0  0  0  0  0  0  0  0
  -36.2946    0.3388  -46.2351 C   0  0  0  0  0  0  0  0  0  0  0  0
  -35.6061    1.5550  -45.6127 C   0  0  0  0  0  0  0  0  0  0  0  0
  -34.7166    2.2289  -46.6595 C   0  0  0  0  0  0  0  0  0  0  0  0
  -34.7484    1.1050  -44.4283 C   0  0  0  0  0  0  0  0  0  0  0  0
  -36.6646    2.5477  -45.1279 C   0  0  0  0  0  0  0  0  0  0  0  0
  -36.1033    3.3758  -44.0522 N   0  0  0  0  0  0  0  0  0  0  0  0
  -37.0840    4.3650  -43.5824 C   0  0  0  0  0  0  0  0  0  0  0  0
  -36.4801    5.1644  -42.4246 C   0  0  0  0  0  0  0  0  0  0  0  0
  -35.2610    5.7739  -42.8576 O   0  0  0  0  0  0  0  0  0  0  0  0
  -34.2829    4.8392  -43.3212 C   0  0  0  0  0  0  0  0  0  0  0  0
  -34.8645    4.0367  -44.4880 C   0  0  0  0  0  0  0  0  0  0  0  0
  -34.3088   -1.2587  -45.6128 X   0  0  0  0  0  0  0  0  0  0  0  0
  1  2  1  0  0  0  0
  2  3  1  0  0  0  0
  2 14  1  0  0  0  0
  3  4  1  0  0  0  0
  4  5  1  0  0  0  0
  4  6  1  0  0  0  0
  4  7  1  0  0  0  0
  7  8  1  0  0  0  0
  8  9  1  0  0  0  0
  8 13  1  0  0  0  0
  9 10  1  0  0  0  0
 10 11  1  0  0  0  0
 11 12  1  0  0  0  0
 12 13  1  0  0  0  0
M  END
> <Index>
9240

> <PropertyFieldDistance>
nan

$$$$
14947896
BBcorina  12272117083D 1   1.00000     0.00000 
CORINA 4.3.0 0026  30.10.2019
 12 12  0  0  0  0  0  0  0  0999 V2000
  -31.4330    3.5441  -44.1705 C   0  0  0  0  0  0  0  0  0  0  0  0
  -31.5537    4.9608  -43.0438 S   0  0  0  0  0  0  0  0  0  0  0  0
  -30.6037    5.9580  -43.3932 O   0  0  0  0  0  0  0  0  0  0  0  0
  -31.6917    4.5191  -41.7003 O   0  0  0  0  0  0  0  0  0  0  0  0
  -33.0174    5.6484  -43.4000 N   0  0  0  0  0  0  0  0  0  0  0  0
  -34.2559    4.9088  -43.1443 C   0  0  0  0  0  0  0  0  0  0  0  0
  -35.3534    5.8832  -42.7079 C   0  0  0  0  0  0  0  0  0  0  0  0
  -36.6587    5.1099  -42.5007 C   0  0  0  0  0  0  0  0  0  0  0  0
  -37.0291    4.3869  -43.7977 C   0  0  0  0  0  0  0  0  0  0  0  0
  -35.9479    3.4664  -44.1723 N   0  0  0  0  0  0  0  0  0  0  0  0
  -34.6958    4.1916  -44.4226 C   0  0  0  0  0  0  0  0  0  0  0  0
  -36.3899    2.5210  -45.5270 X   0  0  0  0  0  0  0  0  0  0  0  0
  1  2  1  0  0  0  0
  2  3  2  0  0  0  0
  2  4  2  0  0  0  0
  2  5  1  0  0  0  0
  5  6  1  0  0  0  0
  6  7  1  0  0  0  0
  6 11  1  0  0  0  0
  7  8  1  0  0  0  0
  8  9  1  0  0  0  0
  9 10  1  0  0  0  0
 10 11  1  0  0  0  0
 10 12  1  0  0  0  0
M  END
> <Index>
9265

> <PropertyFieldDistance>
nan

$$$$
10436318
BBcorina  12272117083D 1   1.00000     0.00000 
CORINA 4.3.0 0026  30.10.2019
 13 14  0  0  0  0  0  0  0  0999 V2000
  -36.2717    0.2582  -46.6099 C   0  0  0  0  0  0  0  0  0  0  0  0
  -36.2220    0.8558  -45.2023 C   0  0  0  0  0  0  0  0  0  0  0  0
  -37.5548    1.1183  -44.4982 C   0  0  0  0  0  0  0  0  0  0  0  0
  -36.7244    2.2901  -45.0256 C   0  0  0  0  0  0  0  0  0  0  0  0
  -36.0368    3.1329  -44.0382 N   0  0  0  0  0  0  0  0  0  0  0  0
  -36.7807    4.3869  -43.8030 C   0  0  0  0  0  0  0  0  0  0  0  0
  -36.4829    4.8522  -42.4002 C   0  0  0  0  0  0  0  0  0  0  0  0
  -35.3745    5.8284  -42.3665 N   0  0  0  0  0  0  0  0  0  0  0  0
  -34.2518    5.4886  -43.2700 C   0  0  0  0  0  0  0  0  0  0  0  0
  -33.9078    4.0211  -43.2535 C   0  0  0  0  0  0  0  0  0  0  0  0
  -32.4055    3.8421  -43.4810 C   0  0  0  0  0  0  0  0  0  0  0  0
  -34.6900    3.3100  -44.3804 C   0  0  0  0  0  0  0  0  0  0  0  0
  -35.9440    7.4128  -42.6656 X   0  0  0  0  0  0  0  0  0  0  0  0
  1  2  1  0  0  0  0
  2  3  1  0  0  0  0
  2  4  1  0  0  0  0
  3  4  1  0  0  0  0
  4  5  1  0  0  0  0
  5  6  1  0  0  0  0
  5 12  1  0  0  0  0
  6  7  1  0  0  0  0
  7  8  1  0  0  0  0
  8  9  1  0  0  0  0
  8 13  1  0  0  0  0
  9 10  1  0  0  0  0
 10 11  1  0  0  0  0
 10 12  1  0  0  0  0
M  END
> <Index>
9275

> <PropertyFieldDistance>
nan

$$$$
13040340
BBcorina  12272117083D 1   1.00000     0.00000 
CORINA 4.3.0 0026  30.10.2019
 14 15  0  0  0  0  0  0  0  0999 V2000
  -37.5910    5.7291  -41.5883 C   0  0  0  0  0  0  0  0  0  0  0  0
  -36.6643    5.3994  -42.7602 C   0  0  0  0  0  0  0  0  0  0  0  0
  -36.9585    3.9833  -43.2611 C   0  0  0  0  0  0  0  0  0  0  0  0
  -36.0408    3.6551  -44.3609 N   0  0  0  0  0  0  0  0  0  0  0  0
  -34.6421    3.7341  -43.9173 C   0  0  0  0  0  0  0  0  0  0  0  0
  -34.3479    5.1501  -43.4164 C   0  0  0  0  0  0  0  0  0  0  0  0
  -35.2655    5.4784  -42.3165 N   0  0  0  0  0  0  0  0  0  0  0  0
  -36.3258    2.4000  -44.8905 C   0  0  0  0  0  0  0  0  0  0  0  0
  -36.1111    1.2423  -44.1429 C   0  0  0  0  0  0  0  0  0  0  0  0
  -36.4064    0.0179  -44.7043 C   0  0  0  0  0  0  0  0  0  0  0  0
  -36.8859   -0.0661  -45.9311 N   0  0  0  0  0  0  0  0  0  0  0  0
  -37.1029    1.0057  -46.6703 C   0  0  0  0  0  0  0  0  0  0  0  0
  -36.8391    2.2675  -46.1806 C   0  0  0  0  0  0  0  0  0  0  0  0
  -34.9154    7.0205  -41.6659 X   0  0  0  0  0  0  0  0  0  0  0  0
  1  2  1  0  0  0  0
  2  3  1  0  0  0  0
  2  7  1  0  0  0  0
  3  4  1  0  0  0  0
  4  5  1  0  0  0  0
  4  8  1  0  0  0  0
  5  6  1  0  0  0  0
  6  7  1  0  0  0  0
  7 14  1  0  0  0  0
  8  9  2  0  0  0  0
  8 13  1  0  0  0  0
  9 10  1  0  0  0  0
 10 11  2  0  0  0  0
 11 12  1  0  0  0  0
 12 13  2  0  0  0  0
M  END
> <Index>
9283

> <PropertyFieldDistance>
nan

$$$$
17603554
BBcorina  12272117083D 1   1.00000     0.00000 
CORINA 4.3.0 0026  30.10.2019
 13 13  0  0  0  0  0  0  0  0999 V2000
  -36.6830    1.7350  -47.8385 F   0  0  0  0  0  0  0  0  0  0  0  0
  -36.1446    0.8768  -46.8738 C   0  0  0  0  0  0  0  0  0  0  0  0
  -35.1298    0.1053  -47.4501 F   0  0  0  0  0  0  0  0  0  0  0  0
  -37.1498    0.0352  -46.3853 F   0  0  0  0  0  0  0  0  0  0  0  0
  -35.5665    1.7022  -45.7226 C   0  0  0  0  0  0  0  0  0  0  0  0
  -36.6764    2.5458  -45.0923 C   0  0  0  0  0  0  0  0  0  0  0  0
  -36.1213    3.3384  -43.9870 N   0  0  0  0  0  0  0  0  0  0  0  0
  -37.0937    4.3323  -43.5113 C   0  0  0  0  0  0  0  0  0  0  0  0
  -36.5085    5.0811  -42.3116 C   0  0  0  0  0  0  0  0  0  0  0  0
  -35.2497    5.7277  -42.7076 N   0  0  0  0  0  0  0  0  0  0  0  0
  -34.2773    4.7339  -43.1833 C   0  0  0  0  0  0  0  0  0  0  0  0
  -34.8624    3.9851  -44.3830 C   0  0  0  0  0  0  0  0  0  0  0  0
  -34.6035    6.6503  -41.4210 X   0  0  0  0  0  0  0  0  0  0  0  0
  1  2  1  0  0  0  0
  2  3  1  0  0  0  0
  2  4  1  0  0  0  0
  2  5  1  0  0  0  0
  5  6  1  0  0  0  0
  6  7  1  0  0  0  0
  7  8  1  0  0  0  0
  7 12  1  0  0  0  0
  8  9  1  0  0  0  0
  9 10  1  0  0  0  0
 10 11  1  0  0  0  0
 10 13  1  0  0  0  0
 11 12  1  0  0  0  0
M  END
> <Index>
9292

> <PropertyFieldDistance>
nan

$$$$
7932736
BBcorina  12272117083D 1   1.00000     0.00000 
CORINA 4.3.0 0026  30.10.2019
 15 16  0  0  0  0  0  0  0  0999 V2000
  -38.0050    2.0283  -43.2759 F   0  0  0  0  0  0  0  0  0  0  0  0
  -37.3268    1.6072  -44.3659 C   0  0  0  0  0  0  0  0  0  0  0  0
  -37.6167    0.3788  -44.9298 C   0  0  0  0  0  0  0  0  0  0  0  0
  -36.9223   -0.0522  -46.0458 C   0  0  0  0  0  0  0  0  0  0  0  0
  -35.9370    0.7428  -46.6007 C   0  0  0  0  0  0  0  0  0  0  0  0
  -35.6464    1.9749  -46.0463 C   0  0  0  0  0  0  0  0  0  0  0  0
  -36.3360    2.4092  -44.9229 C   0  0  0  0  0  0  0  0  0  0  0  0
  -36.0395    3.6526  -44.3557 N   0  0  0  0  0  0  0  0  0  0  0  0
  -36.9539    3.9571  -43.2477 C   0  0  0  0  0  0  0  0  0  0  0  0
  -36.6957    5.3803  -42.7480 C   0  0  0  0  0  0  0  0  0  0  0  0
  -35.2419    5.4972  -42.2813 C   0  0  0  0  0  0  0  0  0  0  0  0
  -34.3112    5.1271  -43.4395 C   0  0  0  0  0  0  0  0  0  0  0  0
  -34.6386    3.7113  -43.9193 C   0  0  0  0  0  0  0  0  0  0  0  0
  -32.9157    5.1801  -42.9834 N   0  0  0  0  0  0  0  0  0  0  0  0
  -32.6231    4.0119  -41.7694 X   0  0  0  0  0  0  0  0  0  0  0  0
  1  2  1  0  0  0  0
  2  3  2  0  0  0  0
  2  7  1  0  0  0  0
  3  4  1  0  0  0  0
  4  5  2  0  0  0  0
  5  6  1  0  0  0  0
  6  7  2  0  0  0  0
  7  8  1  0  0  0  0
  8  9  1  0  0  0  0
  8 13  1  0  0  0  0
  9 10  1  0  0  0  0
 10 11  1  0  0  0  0
 11 12  1  0  0  0  0
 12 13  1  0  0  0  0
 12 14  1  0  0  0  0
 14 15  1  0  0  0  0
M  END
> <Index>
9300

> <PropertyFieldDistance>
nan

$$$$
9330400
BBcorina  12272117083D 1   1.00000     0.00000 
CORINA 4.3.0 0026  30.10.2019
 13 14  0  0  0  0  0  0  0  0999 V2000
  -33.9749    9.0951  -38.5557 C   0  0  0  0  0  0  0  0  0  0  0  0
  -34.3566    8.1974  -39.7045 C   0  0  0  0  0  0  0  0  0  0  0  0
  -34.6543    8.5927  -40.9459 C   0  0  0  0  0  0  0  0  0  0  0  0
  -34.9572    7.6130  -41.7735 N   0  0  0  0  0  0  0  0  0  0  0  0
  -34.9316    6.4132  -41.2994 C   0  0  0  0  0  0  0  0  0  0  0  0
  -34.4890    6.4413  -39.6481 S   0  0  0  0  0  0  0  0  0  0  0  0
  -35.2462    5.1676  -42.0870 C   0  0  0  0  0  0  0  0  0  0  0  0
  -36.6793    5.2476  -42.6202 C   0  0  0  0  0  0  0  0  0  0  0  0
  -36.9723    4.0087  -43.4694 C   0  0  0  0  0  0  0  0  0  0  0  0
  -36.0191    3.9414  -44.5845 N   0  0  0  0  0  0  0  0  0  0  0  0
  -34.6396    3.8164  -44.0970 C   0  0  0  0  0  0  0  0  0  0  0  0
  -34.2770    5.0496  -43.2665 C   0  0  0  0  0  0  0  0  0  0  0  0
  -36.4111    2.6621  -45.6494 X   0  0  0  0  0  0  0  0  0  0  0  0
  1  2  1  0  0  0  0
  2  3  2  0  0  0  0
  2  6  1  0  0  0  0
  3  4  1  0  0  0  0
  4  5  2  0  0  0  0
  5  6  1  0  0  0  0
  5  7  1  0  0  0  0
  7  8  1  0  0  0  0
  7 12  1  0  0  0  0
  8  9  1  0  0  0  0
  9 10  1  0  0  0  0
 10 11  1  0  0  0  0
 10 13  1  0  0  0  0
 11 12  1  0  0  0  0
M  END
> <Index>
9313

> <PropertyFieldDistance>
nan

$$$$
6465746
BBcorina  12272117083D 1   1.00000     0.00000 
CORINA 4.3.0 0026  30.10.2019
 11 11  0  0  0  0  0  0  0  0999 V2000
  -30.6150    5.1696  -43.9969 N   0  0  0  0  0  0  0  0  0  0  0  0
  -31.8523    4.7118  -43.7214 C   0  0  0  0  0  0  0  0  0  0  0  0
  -32.0730    3.5192  -43.7278 O   0  0  0  0  0  0  0  0  0  0  0  0
  -32.9630    5.6821  -43.4116 C   0  0  0  0  0  0  0  0  0  0  0  0
  -34.2559    4.9088  -43.1443 C   0  0  0  0  0  0  0  0  0  0  0  0
  -35.3535    5.8832  -42.7081 C   0  0  0  0  0  0  0  0  0  0  0  0
  -36.6587    5.1099  -42.5007 C   0  0  0  0  0  0  0  0  0  0  0  0
  -37.0290    4.3870  -43.7977 C   0  0  0  0  0  0  0  0  0  0  0  0
  -35.9479    3.4664  -44.1723 N   0  0  0  0  0  0  0  0  0  0  0  0
  -34.6958    4.1915  -44.4227 C   0  0  0  0  0  0  0  0  0  0  0  0
  -36.3899    2.5210  -45.5269 X   0  0  0  0  0  0  0  0  0  0  0  0
  1  2  1  0  0  0  0
  2  3  2  0  0  0  0
  2  4  1  0  0  0  0
  4  5  1  0  0  0  0
  5  6  1  0  0  0  0
  5 10  1  0  0  0  0
  6  7  1  0  0  0  0
  7  8  1  0  0  0  0
  8  9  1  0  0  0  0
  9 10  1  0  0  0  0
  9 11  1  0  0  0  0
M  END
> <Index>
9318

> <PropertyFieldDistance>
nan

$$$$
10435648
BBcorina  12272117083D 1   1.00000     0.00000 
CORINA 4.3.0 0026  30.10.2019
 15 16  0  0  0  0  0  0  0  0999 V2000
  -37.6840    6.1181  -42.0625 C   0  0  0  0  0  0  0  0  0  0  0  0
  -36.5917    5.0986  -42.3916 C   0  0  0  0  0  0  0  0  0  0  0  0
  -37.0241    4.2576  -43.5950 C   0  0  0  0  0  0  0  0  0  0  0  0
  -35.9566    3.3057  -43.9331 N   0  0  0  0  0  0  0  0  0  0  0  0
  -34.7084    4.0113  -44.2549 C   0  0  0  0  0  0  0  0  0  0  0  0
  -34.2759    4.8523  -43.0515 C   0  0  0  0  0  0  0  0  0  0  0  0
  -35.3434    5.8041  -42.7134 N   0  0  0  0  0  0  0  0  0  0  0  0
  -36.3448    2.4708  -44.9833 C   0  0  0  0  0  0  0  0  0  0  0  0
  -35.4745    1.4967  -45.4558 C   0  0  0  0  0  0  0  0  0  0  0  0
  -35.8601    0.6719  -46.4946 C   0  0  0  0  0  0  0  0  0  0  0  0
  -37.1111    0.8142  -47.0651 C   0  0  0  0  0  0  0  0  0  0  0  0
  -37.9825    1.7841  -46.5968 C   0  0  0  0  0  0  0  0  0  0  0  0
  -39.2049    1.9203  -47.1557 F   0  0  0  0  0  0  0  0  0  0  0  0
  -37.6037    2.6092  -45.5535 C   0  0  0  0  0  0  0  0  0  0  0  0
  -34.8683    6.8264  -41.4276 X   0  0  0  0  0  0  0  0  0  0  0  0
  1  2  1  0  0  0  0
  2  3  1  0  0  0  0
  2  7  1  0  0  0  0
  3  4  1  0  0  0  0
  4  5  1  0  0  0  0
  4  8  1  0  0  0  0
  5  6  1  0  0  0  0
  6  7  1  0  0  0  0
  7 15  1  0  0  0  0
  8  9  2  0  0  0  0
  8 14  1  0  0  0  0
  9 10  1  0  0  0  0
 10 11  2  0  0  0  0
 11 12  1  0  0  0  0
 12 13  1  0  0  0  0
 12 14  2  0  0  0  0
M  END
> <Index>
9322

> <PropertyFieldDistance>
nan

$$$$
9227118
BBcorina  12272117083D 1   1.00000     0.00000 
CORINA 4.3.0 0026  30.10.2019
 15 16  0  0  0  0  0  0  0  0999 V2000
  -37.6840    6.1185  -42.0624 C   0  0  0  0  0  0  0  0  0  0  0  0
  -36.5916    5.0988  -42.3915 C   0  0  0  0  0  0  0  0  0  0  0  0
  -37.0240    4.2577  -43.5949 C   0  0  0  0  0  0  0  0  0  0  0  0
  -35.9566    3.3058  -43.9328 N   0  0  0  0  0  0  0  0  0  0  0  0
  -34.7083    4.0114  -44.2547 C   0  0  0  0  0  0  0  0  0  0  0  0
  -34.2759    4.8526  -43.0514 C   0  0  0  0  0  0  0  0  0  0  0  0
  -35.3434    5.8044  -42.7134 N   0  0  0  0  0  0  0  0  0  0  0  0
  -36.3451    2.4698  -44.9842 C   0  0  0  0  0  0  0  0  0  0  0  0
  -37.5076    2.7382  -45.6934 C   0  0  0  0  0  0  0  0  0  0  0  0
  -37.8855    1.9139  -46.7362 C   0  0  0  0  0  0  0  0  0  0  0  0
  -37.1144    0.8150  -47.0661 C   0  0  0  0  0  0  0  0  0  0  0  0
  -35.9582    0.5397  -46.3584 C   0  0  0  0  0  0  0  0  0  0  0  0
  -35.5705    1.3636  -45.3182 C   0  0  0  0  0  0  0  0  0  0  0  0
  -34.4412    1.0947  -44.6270 F   0  0  0  0  0  0  0  0  0  0  0  0
  -34.8683    6.8268  -41.4278 X   0  0  0  0  0  0  0  0  0  0  0  0
  1  2  1  0  0  0  0
  2  3  1  0  0  0  0
  2  7  1  0  0  0  0
  3  4  1  0  0  0  0
  4  5  1  0  0  0  0
  4  8  1  0  0  0  0
  5  6  1  0  0  0  0
  6  7  1  0  0  0  0
  7 15  1  0  0  0  0
  8  9  2  0  0  0  0
  8 13  1  0  0  0  0
  9 10  1  0  0  0  0
 10 11  2  0  0  0  0
 11 12  1  0  0  0  0
 12 13  2  0  0  0  0
 13 14  1  0  0  0  0
M  END
> <Index>
9323

> <PropertyFieldDistance>
nan

$$$$
9048878
BBcorina  12272117083D 1   1.00000     0.00000 
CORINA 4.3.0 0026  30.10.2019
 11 11  0  0  0  0  0  0  0  0999 V2000
  -38.3928    3.9487  -43.9789 C   0  0  0  0  0  0  0  0  0  0  0  0
  -36.9416    3.9149  -43.4952 C   0  0  0  0  0  0  0  0  0  0  0  0
  -36.6650    5.1427  -42.6242 C   0  0  0  0  0  0  0  0  0  0  0  0
  -35.2602    5.1278  -42.1932 N   0  0  0  0  0  0  0  0  0  0  0  0
  -34.3566    5.1389  -43.3521 C   0  0  0  0  0  0  0  0  0  0  0  0
  -34.6331    3.9111  -44.2230 C   0  0  0  0  0  0  0  0  0  0  0  0
  -36.0381    3.9259  -44.6541 N   0  0  0  0  0  0  0  0  0  0  0  0
  -36.3242    2.8018  -45.5553 C   0  0  0  0  0  0  0  0  0  0  0  0
  -36.1369    1.4835  -44.8018 C   0  0  0  0  0  0  0  0  0  0  0  0
  -37.1578    1.3525  -43.8104 O   0  0  0  0  0  0  0  0  0  0  0  0
  -34.9272    6.4364  -41.1439 X   0  0  0  0  0  0  0  0  0  0  0  0
  1  2  1  0  0  0  0
  2  3  1  0  0  0  0
  2  7  1  0  0  0  0
  3  4  1  0  0  0  0
  4  5  1  0  0  0  0
  4 11  1  0  0  0  0
  5  6  1  0  0  0  0
  6  7  1  0  0  0  0
  7  8  1  0  0  0  0
  8  9  1  0  0  0  0
  9 10  1  0  0  0  0
M  END
> <Index>
9324

> <PropertyFieldDistance>
nan

$$$$
9109912
BBcorina  12272117083D 1   1.00000     0.00000 
CORINA 4.3.0 0026  30.10.2019
 13 13  0  0  0  0  0  0  0  0999 V2000
  -38.3915    3.9470  -43.9816 C   0  0  0  0  0  0  0  0  0  0  0  0
  -36.9408    3.9140  -43.4965 C   0  0  0  0  0  0  0  0  0  0  0  0
  -36.6657    5.1419  -42.6251 C   0  0  0  0  0  0  0  0  0  0  0  0
  -35.2613    5.1278  -42.1928 N   0  0  0  0  0  0  0  0  0  0  0  0
  -34.3567    5.1397  -43.3509 C   0  0  0  0  0  0  0  0  0  0  0  0
  -34.6317    3.9119  -44.2223 C   0  0  0  0  0  0  0  0  0  0  0  0
  -36.0362    3.9259  -44.6546 N   0  0  0  0  0  0  0  0  0  0  0  0
  -36.3207    2.8017  -45.5564 C   0  0  0  0  0  0  0  0  0  0  0  0
  -36.1427    1.4837  -44.8001 C   0  0  0  0  0  0  0  0  0  0  0  0
  -37.3448    1.2566  -43.8812 C   0  0  0  0  0  0  0  0  0  0  0  0
  -36.0412    0.3310  -45.8012 C   0  0  0  0  0  0  0  0  0  0  0  0
  -34.9487    1.5412  -44.0172 O   0  0  0  0  0  0  0  0  0  0  0  0
  -34.9301    6.4364  -41.1431 X   0  0  0  0  0  0  0  0  0  0  0  0
  1  2  1  0  0  0  0
  2  3  1  0  0  0  0
  2  7  1  0  0  0  0
  3  4  1  0  0  0  0
  4  5  1  0  0  0  0
  4 13  1  0  0  0  0
  5  6  1  0  0  0  0
  6  7  1  0  0  0  0
  7  8  1  0  0  0  0
  8  9  1  0  0  0  0
  9 10  1  0  0  0  0
  9 11  1  0  0  0  0
  9 12  1  0  0  0  0
M  END
> <Index>
9325

> <PropertyFieldDistance>
nan

$$$$
12897372
BBcorina  12272117083D 1   1.00000     0.00000 
CORINA 4.3.0 0026  30.10.2019
 14 15  0  0  0  0  0  0  0  0999 V2000
  -37.5476    5.2043  -41.3536 C   0  0  0  0  0  0  0  0  0  0  0  0
  -36.5938    5.2076  -42.5500 C   0  0  0  0  0  0  0  0  0  0  0  0
  -36.9774    4.0807  -43.5120 C   0  0  0  0  0  0  0  0  0  0  0  0
  -36.0360    4.0617  -44.6403 N   0  0  0  0  0  0  0  0  0  0  0  0
  -34.6593    3.8535  -44.1703 C   0  0  0  0  0  0  0  0  0  0  0  0
  -34.2756    4.9803  -43.2082 C   0  0  0  0  0  0  0  0  0  0  0  0
  -35.2171    4.9994  -42.0800 N   0  0  0  0  0  0  0  0  0  0  0  0
  -34.8571    5.9667  -41.1464 C   0  0  0  0  0  0  0  0  0  0  0  0
  -34.7052    7.3014  -41.5214 C   0  0  0  0  0  0  0  0  0  0  0  0
  -34.3532    8.2301  -40.5648 C   0  0  0  0  0  0  0  0  0  0  0  0
  -34.1559    7.8684  -39.3108 N   0  0  0  0  0  0  0  0  0  0  0  0
  -34.2849    6.6150  -38.9176 C   0  0  0  0  0  0  0  0  0  0  0  0
  -34.6348    5.6259  -39.8123 C   0  0  0  0  0  0  0  0  0  0  0  0
  -36.4783    2.8731  -45.7874 X   0  0  0  0  0  0  0  0  0  0  0  0
  1  2  1  0  0  0  0
  2  3  1  0  0  0  0
  2  7  1  0  0  0  0
  3  4  1  0  0  0  0
  4  5  1  0  0  0  0
  4 14  1  0  0  0  0
  5  6  1  0  0  0  0
  6  7  1  0  0  0  0
  7  8  1  0  0  0  0
  8  9  2  0  0  0  0
  8 13  1  0  0  0  0
  9 10  1  0  0  0  0
 10 11  2  0  0  0  0
 11 12  1  0  0  0  0
 12 13  2  0  0  0  0
M  END
> <Index>
9326

> <PropertyFieldDistance>
nan

$$$$
9277500
BBcorina  12272117083D 1   1.00000     0.00000 
CORINA 4.3.0 0026  30.10.2019
 16 17  0  0  0  0  0  0  0  0999 V2000
  -36.4162    2.5466  -45.1876 C   0  0  0  0  0  0  0  0  0  0  0  0
  -36.0479    3.7317  -44.4014 N   0  0  0  0  0  0  0  0  0  0  0  0
  -36.9599    3.9131  -43.2635 C   0  0  0  0  0  0  0  0  0  0  0  0
  -36.5927    5.1985  -42.5183 C   0  0  0  0  0  0  0  0  0  0  0  0
  -35.1978    5.1163  -42.0630 N   0  0  0  0  0  0  0  0  0  0  0  0
  -34.2854    4.9351  -43.2007 C   0  0  0  0  0  0  0  0  0  0  0  0
  -34.6526    3.6497  -43.9460 C   0  0  0  0  0  0  0  0  0  0  0  0
  -34.8512    6.2328  -41.3222 C   0  0  0  0  0  0  0  0  0  0  0  0
  -35.7537    7.1819  -41.1222 N   0  0  0  0  0  0  0  0  0  0  0  0
  -35.4550    8.2617  -40.4188 C   0  0  0  0  0  0  0  0  0  0  0  0
  -34.1810    8.3926  -39.8893 C   0  0  0  0  0  0  0  0  0  0  0  0
  -33.2612    7.3809  -40.1178 C   0  0  0  0  0  0  0  0  0  0  0  0
  -31.8641    7.4805  -39.5619 C   0  0  0  0  0  0  0  0  0  0  0  0
  -31.7960    6.7701  -38.2778 N   0  0  0  0  0  0  0  0  0  0  0  0
  -33.6262    6.3247  -40.8254 N   0  0  0  0  0  0  0  0  0  0  0  0
  -30.2240    6.8587  -37.6110 X   0  0  0  0  0  0  0  0  0  0  0  0
  1  2  1  0  0  0  0
  2  3  1  0  0  0  0
  2  7  1  0  0  0  0
  3  4  1  0  0  0  0
  4  5  1  0  0  0  0
  5  6  1  0  0  0  0
  5  8  1  0  0  0  0
  6  7  1  0  0  0  0
  8  9  2  0  0  0  0
  8 15  1  0  0  0  0
  9 10  1  0  0  0  0
 10 11  2  0  0  0  0
 11 12  1  0  0  0  0
 12 13  1  0  0  0  0
 12 15  2  0  0  0  0
 13 14  1  0  0  0  0
 14 16  1  0  0  0  0
M  END
> <Index>
9343

> <PropertyFieldDistance>
nan

$$$$
11762294
BBcorina  12272117083D 1   1.00000     0.00000 
CORINA 4.3.0 0026  30.10.2019
 14 14  0  0  0  0  0  0  0  0999 V2000
  -36.3117    0.3154  -46.0746 C   0  0  0  0  0  0  0  0  0  0  0  0
  -35.5959    1.5757  -45.5845 C   0  0  0  0  0  0  0  0  0  0  0  0
  -35.1082    2.3856  -46.7874 C   0  0  0  0  0  0  0  0  0  0  0  0
  -34.3991    1.1782  -44.7182 C   0  0  0  0  0  0  0  0  0  0  0  0
  -36.5501    2.4108  -44.7702 C   0  0  0  0  0  0  0  0  0  0  0  0
  -37.6437    1.9735  -44.4809 O   0  0  0  0  0  0  0  0  0  0  0  0
  -36.1882    3.6437  -44.3633 N   0  0  0  0  0  0  0  0  0  0  0  0
  -37.1500    4.5186  -43.6792 C   0  0  0  0  0  0  0  0  0  0  0  0
  -36.5399    4.9864  -42.3542 C   0  0  0  0  0  0  0  0  0  0  0  0
  -35.1788    5.6372  -42.6292 C   0  0  0  0  0  0  0  0  0  0  0  0
  -34.2370    4.6103  -43.2619 C   0  0  0  0  0  0  0  0  0  0  0  0
  -34.8244    4.1383  -44.5957 C   0  0  0  0  0  0  0  0  0  0  0  0
  -34.6025    6.1166  -41.3658 N   0  0  0  0  0  0  0  0  0  0  0  0
  -34.2777    4.8137  -40.3070 X   0  0  0  0  0  0  0  0  0  0  0  0
  1  2  1  0  0  0  0
  2  3  1  0  0  0  0
  2  4  1  0  0  0  0
  2  5  1  0  0  0  0
  5  6  2  0  0  0  0
  5  7  1  0  0  0  0
  7  8  1  0  0  0  0
  7 12  1  0  0  0  0
  8  9  1  0  0  0  0
  9 10  1  0  0  0  0
 10 11  1  0  0  0  0
 10 13  1  0  0  0  0
 11 12  1  0  0  0  0
 13 14  1  0  0  0  0
M  END
> <Index>
9362

> <PropertyFieldDistance>
nan

$$$$
8625794
BBcorina  12272117083D 1   1.00000     0.00000 
CORINA 4.3.0 0026  30.10.2019
 14 15  0  0  0  0  0  0  0  0999 V2000
  -32.5293    6.6070  -42.4775 C   0  0  0  0  0  0  0  0  0  0  0  0
  -32.8546    5.1922  -42.9607 C   0  0  0  0  0  0  0  0  0  0  0  0
  -31.9626    4.8373  -44.0726 N   0  0  0  0  0  0  0  0  0  0  0  0
  -34.3081    5.1368  -43.4352 C   0  0  0  0  0  0  0  0  0  0  0  0
  -35.2385    5.5067  -42.2767 C   0  0  0  0  0  0  0  0  0  0  0  0
  -36.6923    5.3914  -42.7433 C   0  0  0  0  0  0  0  0  0  0  0  0
  -36.9514    3.9683  -43.2428 C   0  0  0  0  0  0  0  0  0  0  0  0
  -36.0372    3.6631  -44.3508 N   0  0  0  0  0  0  0  0  0  0  0  0
  -34.6362    3.7210  -43.9146 C   0  0  0  0  0  0  0  0  0  0  0  0
  -36.3495    2.3571  -44.9464 C   0  0  0  0  0  0  0  0  0  0  0  0
  -37.8038    2.2328  -45.4307 C   0  0  0  0  0  0  0  0  0  0  0  0
  -37.2499    1.4805  -46.6523 C   0  0  0  0  0  0  0  0  0  0  0  0
  -35.9308    2.2366  -46.4212 C   0  0  0  0  0  0  0  0  0  0  0  0
  -32.1537    5.9211  -45.3814 X   0  0  0  0  0  0  0  0  0  0  0  0
  1  2  1  0  0  0  0
  2  3  1  0  0  0  0
  2  4  1  0  0  0  0
  3 14  1  0  0  0  0
  4  5  1  0  0  0  0
  4  9  1  0  0  0  0
  5  6  1  0  0  0  0
  6  7  1  0  0  0  0
  7  8  1  0  0  0  0
  8  9  1  0  0  0  0
  8 10  1  0  0  0  0
 10 11  1  0  0  0  0
 10 13  1  0  0  0  0
 11 12  1  0  0  0  0
 12 13  1  0  0  0  0
M  END
> <Index>
9425

> <PropertyFieldDistance>
nan

$$$$
8990602
BBcorina  12272117083D 1   1.00000     0.00000 
CORINA 4.3.0 0026  30.10.2019
 14 14  0  0  0  0  0  0  0  0999 V2000
  -38.0326    1.7265  -46.5554 C   0  0  0  0  0  0  0  0  0  0  0  0
  -37.6817    2.4755  -45.3620 O   0  0  0  0  0  0  0  0  0  0  0  0
  -36.3728    2.7082  -45.1492 C   0  0  0  0  0  0  0  0  0  0  0  0
  -35.5463    2.2966  -45.9391 O   0  0  0  0  0  0  0  0  0  0  0  0
  -35.9793    3.3976  -44.0600 N   0  0  0  0  0  0  0  0  0  0  0  0
  -36.9669    3.9021  -43.0962 C   0  0  0  0  0  0  0  0  0  0  0  0
  -36.7431    5.4051  -42.9018 C   0  0  0  0  0  0  0  0  0  0  0  0
  -35.2877    5.6520  -42.4979 C   0  0  0  0  0  0  0  0  0  0  0  0
  -34.3578    5.1652  -43.6117 C   0  0  0  0  0  0  0  0  0  0  0  0
  -34.5547    3.6595  -43.8142 C   0  0  0  0  0  0  0  0  0  0  0  0
  -32.9045    5.4424  -43.2220 C   0  0  0  0  0  0  0  0  0  0  0  0
  -32.6840    6.9527  -43.1167 C   0  0  0  0  0  0  0  0  0  0  0  0
  -32.0087    4.8868  -44.2453 N   0  0  0  0  0  0  0  0  0  0  0  0
  -32.3589    5.5401  -45.7863 X   0  0  0  0  0  0  0  0  0  0  0  0
  1  2  1  0  0  0  0
  2  3  1  0  0  0  0
  3  4  2  0  0  0  0
  3  5  1  0  0  0  0
  5  6  1  0  0  0  0
  5 10  1  0  0  0  0
  6  7  1  0  0  0  0
  7  8  1  0  0  0  0
  8  9  1  0  0  0  0
  9 10  1  0  0  0  0
  9 11  1  0  0  0  0
 11 12  1  0  0  0  0
 11 13  1  0  0  0  0
 13 14  1  0  0  0  0
M  END
> <Index>
9426

> <PropertyFieldDistance>
nan

$$$$
7346292
BBcorina  12272117083D 1   1.00000     0.00000 
CORINA 4.3.0 0026  30.10.2019
 12 13  0  0  0  0  0  0  0  0999 V2000
  -32.3733    3.5377  -44.4009 N   0  0  0  0  0  0  0  0  0  0  0  0
  -33.7707    3.0856  -44.4306 C   0  0  0  0  0  0  0  0  0  0  0  0
  -33.8152    1.5550  -44.3901 C   0  0  0  0  0  0  0  0  0  0  0  0
  -35.2743    1.0935  -44.3490 C   0  0  0  0  0  0  0  0  0  0  0  0
  -35.9202    1.6627  -43.2076 O   0  0  0  0  0  0  0  0  0  0  0  0
  -35.9396    3.0880  -43.1997 C   0  0  0  0  0  0  0  0  0  0  0  0
  -36.7057    3.6060  -44.4312 C   0  0  0  0  0  0  0  0  0  0  0  0
  -38.1413    3.8574  -43.9053 C   0  0  0  0  0  0  0  0  0  0  0  0
  -37.8920    4.4144  -42.4814 C   0  0  0  0  0  0  0  0  0  0  0  0
  -36.6900    3.5982  -41.9606 C   0  0  0  0  0  0  0  0  0  0  0  0
  -34.5146    3.6387  -43.2104 C   0  0  0  0  0  0  0  0  0  0  0  0
  -32.2096    5.0712  -45.1395 X   0  0  0  0  0  0  0  0  0  0  0  0
  1  2  1  0  0  0  0
  1 12  1  0  0  0  0
  2  3  1  0  0  0  0
  2 11  1  0  0  0  0
  3  4  1  0  0  0  0
  4  5  1  0  0  0  0
  5  6  1  0  0  0  0
  6  7  1  0  0  0  0
  6 10  1  0  0  0  0
  6 11  1  0  0  0  0
  7  8  1  0  0  0  0
  8  9  1  0  0  0  0
  9 10  1  0  0  0  0
M  END
> <Index>
9448

> <PropertyFieldDistance>
nan

$$$$
8229344
BBcorina  12272117083D 1   1.00000     0.00000 
CORINA 4.3.0 0026  30.10.2019
 12 13  0  0  0  0  0  0  0  0999 V2000
  -35.8308    0.7053  -45.6276 N   0  0  0  0  0  0  0  0  0  0  0  0
  -35.2916    1.7705  -44.7717 C   0  0  0  0  0  0  0  0  0  0  0  0
  -34.4190    2.7096  -45.6101 C   0  0  0  0  0  0  0  0  0  0  0  0
  -33.9155    3.8545  -44.7273 C   0  0  0  0  0  0  0  0  0  0  0  0
  -35.0336    4.5495  -44.1683 O   0  0  0  0  0  0  0  0  0  0  0  0
  -35.8786    3.7395  -43.3604 C   0  0  0  0  0  0  0  0  0  0  0  0
  -37.0274    4.5872  -42.7751 C   0  0  0  0  0  0  0  0  0  0  0  0
  -36.5004    4.9043  -41.3513 C   0  0  0  0  0  0  0  0  0  0  0  0
  -35.8080    3.6941  -40.9655 O   0  0  0  0  0  0  0  0  0  0  0  0
  -35.1141    3.2199  -42.1334 C   0  0  0  0  0  0  0  0  0  0  0  0
  -36.4466    2.5743  -44.1637 C   0  0  0  0  0  0  0  0  0  0  0  0
  -34.7781   -0.6417  -45.6660 X   0  0  0  0  0  0  0  0  0  0  0  0
  1  2  1  0  0  0  0
  1 12  1  0  0  0  0
  2  3  1  0  0  0  0
  2 11  1  0  0  0  0
  3  4  1  0  0  0  0
  4  5  1  0  0  0  0
  5  6  1  0  0  0  0
  6  7  1  0  0  0  0
  6 10  1  0  0  0  0
  6 11  1  0  0  0  0
  7  8  1  0  0  0  0
  8  9  1  0  0  0  0
  9 10  1  0  0  0  0
M  END
> <Index>
9449

> <PropertyFieldDistance>
nan

$$$$
7594030
BBcorina  12272117083D 1   1.00000     0.00000 
CORINA 4.3.0 0026  30.10.2019
 14 14  0  0  0  0  0  0  0  0999 V2000
  -35.1578    2.6157  -46.6868 F   0  0  0  0  0  0  0  0  0  0  0  0
  -36.3171    2.0842  -46.1119 C   0  0  0  0  0  0  0  0  0  0  0  0
  -36.5359    0.7953  -46.6100 F   0  0  0  0  0  0  0  0  0  0  0  0
  -37.4100    2.8982  -46.4283 F   0  0  0  0  0  0  0  0  0  0  0  0
  -36.1504    2.0222  -44.5922 C   0  0  0  0  0  0  0  0  0  0  0  0
  -35.9213    3.3718  -44.0706 N   0  0  0  0  0  0  0  0  0  0  0  0
  -37.0837    4.1603  -43.6817 C   0  0  0  0  0  0  0  0  0  0  0  0
  -36.6699    5.3006  -42.7506 C   0  0  0  0  0  0  0  0  0  0  0  0
  -35.5049    6.0620  -43.3945 C   0  0  0  0  0  0  0  0  0  0  0  0
  -34.2810    5.1430  -43.4209 C   0  0  0  0  0  0  0  0  0  0  0  0
  -33.2367    5.7450  -44.2605 N   0  0  0  0  0  0  0  0  0  0  0  0
  -34.6621    3.8017  -43.9810 C   0  0  0  0  0  0  0  0  0  0  0  0
  -33.7770    3.0714  -44.3735 O   0  0  0  0  0  0  0  0  0  0  0  0
  -33.8253    6.0682  -45.8331 X   0  0  0  0  0  0  0  0  0  0  0  0
  1  2  1  0  0  0  0
  2  3  1  0  0  0  0
  2  4  1  0  0  0  0
  2  5  1  0  0  0  0
  5  6  1  0  0  0  0
  6  7  1  0  0  0  0
  6 12  1  0  0  0  0
  7  8  1  0  0  0  0
  8  9  1  0  0  0  0
  9 10  1  0  0  0  0
 10 11  1  0  0  0  0
 10 12  1  0  0  0  0
 11 14  1  0  0  0  0
 12 13  2  0  0  0  0
M  END
> <Index>
9451

> <PropertyFieldDistance>
nan

$$$$
7932154
BBcorina  12272117083D 1   1.00000     0.00000 
CORINA 4.3.0 0026  30.10.2019
 15 15  0  0  0  0  0  0  0  0999 V2000
  -36.9968    1.4360  -48.3269 C   0  0  0  0  0  0  0  0  0  0  0  0
  -36.6686    1.2055  -46.9180 N   0  0  0  0  0  0  0  0  0  0  0  0
  -36.6018   -0.1616  -46.3956 C   0  0  0  0  0  0  0  0  0  0  0  0
  -36.4280    2.2510  -46.1022 C   0  0  0  0  0  0  0  0  0  0  0  0
  -36.4833    3.3828  -46.5346 O   0  0  0  0  0  0  0  0  0  0  0  0
  -36.0904    2.0139  -44.6528 C   0  0  0  0  0  0  0  0  0  0  0  0
  -35.8750    3.2998  -43.9849 N   0  0  0  0  0  0  0  0  0  0  0  0
  -37.0255    3.9530  -43.3732 C   0  0  0  0  0  0  0  0  0  0  0  0
  -36.7426    5.4397  -43.1533 C   0  0  0  0  0  0  0  0  0  0  0  0
  -35.4012    5.5816  -42.4239 C   0  0  0  0  0  0  0  0  0  0  0  0
  -34.2856    5.1274  -43.3684 C   0  0  0  0  0  0  0  0  0  0  0  0
  -33.0298    5.0032  -42.6163 N   0  0  0  0  0  0  0  0  0  0  0  0
  -34.6385    3.7991  -43.9742 C   0  0  0  0  0  0  0  0  0  0  0  0
  -33.7512    3.1457  -44.4808 O   0  0  0  0  0  0  0  0  0  0  0  0
  -33.1469    3.7815  -41.4256 X   0  0  0  0  0  0  0  0  0  0  0  0
  1  2  1  0  0  0  0
  2  3  1  0  0  0  0
  2  4  1  0  0  0  0
  4  5  2  0  0  0  0
  4  6  1  0  0  0  0
  6  7  1  0  0  0  0
  7  8  1  0  0  0  0
  7 13  1  0  0  0  0
  8  9  1  0  0  0  0
  9 10  1  0  0  0  0
 10 11  1  0  0  0  0
 11 12  1  0  0  0  0
 11 13  1  0  0  0  0
 12 15  1  0  0  0  0
 13 14  2  0  0  0  0
M  END
> <Index>
9452

> <PropertyFieldDistance>
nan

$$$$
12206116
BBcorina  12272117083D 1   1.00000     0.00000 
CORINA 4.3.0 0026  30.10.2019
 16 17  0  0  0  0  0  0  0  0999 V2000
  -36.2221    0.8812  -46.8783 N   0  0  0  0  0  0  0  0  0  0  0  0
  -35.7841    2.1241  -46.2293 C   0  0  0  0  0  0  0  0  0  0  0  0
  -36.5733    2.3289  -44.9345 C   0  0  0  0  0  0  0  0  0  0  0  0
  -36.1353    3.5718  -44.2854 N   0  0  0  0  0  0  0  0  0  0  0  0
  -37.0258    3.9263  -43.1715 C   0  0  0  0  0  0  0  0  0  0  0  0
  -36.5836    5.2643  -42.5743 C   0  0  0  0  0  0  0  0  0  0  0  0
  -35.1909    5.1578  -42.1174 N   0  0  0  0  0  0  0  0  0  0  0  0
  -34.3002    4.8030  -43.2317 C   0  0  0  0  0  0  0  0  0  0  0  0
  -34.7425    3.4649  -43.8290 C   0  0  0  0  0  0  0  0  0  0  0  0
  -34.7786    6.3289  -41.5056 C   0  0  0  0  0  0  0  0  0  0  0  0
  -33.5444    6.4109  -41.0309 N   0  0  0  0  0  0  0  0  0  0  0  0
  -33.1189    7.5156  -40.4407 C   0  0  0  0  0  0  0  0  0  0  0  0
  -33.9814    8.5941  -40.3224 C   0  0  0  0  0  0  0  0  0  0  0  0
  -35.2656    8.4745  -40.8300 C   0  0  0  0  0  0  0  0  0  0  0  0
  -35.6260    7.3434  -41.4135 N   0  0  0  0  0  0  0  0  0  0  0  0
  -35.3631    0.6137  -48.3325 X   0  0  0  0  0  0  0  0  0  0  0  0
  1  2  1  0  0  0  0
  1 16  1  0  0  0  0
  2  3  1  0  0  0  0
  3  4  1  0  0  0  0
  4  5  1  0  0  0  0
  4  9  1  0  0  0  0
  5  6  1  0  0  0  0
  6  7  1  0  0  0  0
  7  8  1  0  0  0  0
  7 10  1  0  0  0  0
  8  9  1  0  0  0  0
 10 11  2  0  0  0  0
 10 15  1  0  0  0  0
 11 12  1  0  0  0  0
 12 13  2  0  0  0  0
 13 14  1  0  0  0  0
 14 15  2  0  0  0  0
M  END
> <Index>
9466

> <PropertyFieldDistance>
nan

$$$$
9475918
BBcorina  12272117083D 1   1.00000     0.00000 
CORINA 4.3.0 0026  30.10.2019
 11 12  0  0  0  0  0  0  0  0999 V2000
  -35.2610    2.4457  -41.6691 N   0  0  0  0  0  0  0  0  0  0  0  0
  -36.5028    3.2194  -41.8002 C   0  0  0  0  0  0  0  0  0  0  0  0
  -36.3183    4.3033  -42.8643 C   0  0  0  0  0  0  0  0  0  0  0  0
  -37.6139    5.1198  -43.0449 C   0  0  0  0  0  0  0  0  0  0  0  0
  -37.6344    5.4020  -44.5776 C   0  0  0  0  0  0  0  0  0  0  0  0
  -37.0492    4.0812  -45.1366 C   0  0  0  0  0  0  0  0  0  0  0  0
  -35.9906    3.7033  -44.1753 N   0  0  0  0  0  0  0  0  0  0  0  0
  -34.6909    4.2457  -44.6257 C   0  0  0  0  0  0  0  0  0  0  0  0
  -33.9736    4.6914  -43.3275 C   0  0  0  0  0  0  0  0  0  0  0  0
  -35.1564    5.2459  -42.4907 C   0  0  0  0  0  0  0  0  0  0  0  0
  -35.4242    1.2206  -40.4873 X   0  0  0  0  0  0  0  0  0  0  0  0
  1  2  1  0  0  0  0
  1 11  1  0  0  0  0
  2  3  1  0  0  0  0
  3  4  1  0  0  0  0
  3  7  1  0  0  0  0
  3 10  1  0  0  0  0
  4  5  1  0  0  0  0
  5  6  1  0  0  0  0
  6  7  1  0  0  0  0
  7  8  1  0  0  0  0
  8  9  1  0  0  0  0
  9 10  1  0  0  0  0
M  END
> <Index>
9467

> <PropertyFieldDistance>
nan

$$$$
17803774
BBcorina  12272117083D 1   1.00000     0.00000 
CORINA 4.3.0 0026  30.10.2019
 16 16  0  0  0  0  0  0  0  0999 V2000
  -37.3730    0.3460  -46.5025 C   0  0  0  0  0  0  0  0  0  0  0  0
  -38.0326    1.7256  -46.5548 C   0  0  0  0  0  0  0  0  0  0  0  0
  -39.5521    1.5620  -46.6260 C   0  0  0  0  0  0  0  0  0  0  0  0
  -37.5422    2.4786  -47.7930 C   0  0  0  0  0  0  0  0  0  0  0  0
  -37.6818    2.4752  -45.3619 O   0  0  0  0  0  0  0  0  0  0  0  0
  -36.3729    2.7079  -45.1490 C   0  0  0  0  0  0  0  0  0  0  0  0
  -35.5463    2.2956  -45.9385 O   0  0  0  0  0  0  0  0  0  0  0  0
  -35.9794    3.3979  -44.0602 N   0  0  0  0  0  0  0  0  0  0  0  0
  -36.9670    3.9023  -43.0963 C   0  0  0  0  0  0  0  0  0  0  0  0
  -36.7430    5.4049  -42.9019 C   0  0  0  0  0  0  0  0  0  0  0  0
  -35.2877    5.6519  -42.4977 C   0  0  0  0  0  0  0  0  0  0  0  0
  -35.0780    7.0892  -42.2782 N   0  0  0  0  0  0  0  0  0  0  0  0
  -34.3578    5.1653  -43.6116 C   0  0  0  0  0  0  0  0  0  0  0  0
  -34.6653    5.8547  -44.8249 O   0  0  0  0  0  0  0  0  0  0  0  0
  -34.5547    3.6596  -43.8142 C   0  0  0  0  0  0  0  0  0  0  0  0
  -35.4110    7.9810  -43.6987 X   0  0  0  0  0  0  0  0  0  0  0  0
  1  2  1  0  0  0  0
  2  3  1  0  0  0  0
  2  4  1  0  0  0  0
  2  5  1  0  0  0  0
  5  6  1  0  0  0  0
  6  7  2  0  0  0  0
  6  8  1  0  0  0  0
  8  9  1  0  0  0  0
  8 15  1  0  0  0  0
  9 10  1  0  0  0  0
 10 11  1  0  0  0  0
 11 12  1  0  0  0  0
 11 13  1  0  0  0  0
 12 16  1  0  0  0  0
 13 14  1  0  0  0  0
 13 15  1  0  0  0  0
M  END
> <Index>
9469

> <PropertyFieldDistance>
nan

$$$$
8305056
BBcorina  12272117083D 1   1.00000     0.00000 
CORINA 4.3.0 0026  30.10.2019
 15 16  0  0  0  0  0  0  0  0999 V2000
  -37.1057    2.2968  -45.7982 C   0  0  0  0  0  0  0  0  0  0  0  0
  -35.9037    2.0044  -44.8980 C   0  0  0  0  0  0  0  0  0  0  0  0
  -34.7100    1.5885  -45.7601 C   0  0  0  0  0  0  0  0  0  0  0  0
  -35.5592    3.2108  -44.1340 N   0  0  0  0  0  0  0  0  0  0  0  0
  -36.7375    3.7491  -43.4400 C   0  0  0  0  0  0  0  0  0  0  0  0
  -36.6386    5.2543  -43.2884 C   0  0  0  0  0  0  0  0  0  0  0  0
  -35.5783    5.6926  -42.3906 N   0  0  0  0  0  0  0  0  0  0  0  0
  -34.2388    5.4173  -42.9301 C   0  0  0  0  0  0  0  0  0  0  0  0
  -33.8732    3.9868  -42.5932 C   0  0  0  0  0  0  0  0  0  0  0  0
  -32.8739    3.7297  -41.6757 C   0  0  0  0  0  0  0  0  0  0  0  0
  -32.5373    2.4205  -41.3777 C   0  0  0  0  0  0  0  0  0  0  0  0
  -33.1986    1.3749  -41.9950 C   0  0  0  0  0  0  0  0  0  0  0  0
  -34.2004    1.6311  -42.9120 C   0  0  0  0  0  0  0  0  0  0  0  0
  -34.5382    2.9458  -43.2095 C   0  0  0  0  0  0  0  0  0  0  0  0
  -35.7527    7.3478  -41.9982 X   0  0  0  0  0  0  0  0  0  0  0  0
  1  2  1  0  0  0  0
  2  3  1  0  0  0  0
  2  4  1  0  0  0  0
  4  5  1  0  0  0  0
  4 14  1  0  0  0  0
  5  6  1  0  0  0  0
  6  7  1  0  0  0  0
  7  8  1  0  0  0  0
  7 15  1  0  0  0  0
  8  9  1  0  0  0  0
  9 10  2  0  0  0  0
  9 14  1  0  0  0  0
 10 11  1  0  0  0  0
 11 12  2  0  0  0  0
 12 13  1  0  0  0  0
 13 14  2  0  0  0  0
M  END
> <Index>
9479

> <PropertyFieldDistance>
nan

$$$$
8749976
BBcorina  12272117083D 1   1.00000     0.00000 
CORINA 4.3.0 0026  30.10.2019
 16 17  0  0  0  0  0  0  0  0999 V2000
  -34.7012    6.1276  -41.2440 C   0  0  0  0  0  0  0  0  0  0  0  0
  -35.2292    5.4967  -42.4612 N   0  0  0  0  0  0  0  0  0  0  0  0
  -36.5395    4.8802  -42.2088 C   0  0  0  0  0  0  0  0  0  0  0  0
  -37.0893    4.3052  -43.5164 C   0  0  0  0  0  0  0  0  0  0  0  0
  -36.1407    3.3190  -44.0524 N   0  0  0  0  0  0  0  0  0  0  0  0
  -36.6685    2.6883  -45.2695 C   0  0  0  0  0  0  0  0  0  0  0  0
  -35.6347    1.7065  -45.8247 C   0  0  0  0  0  0  0  0  0  0  0  0
  -34.8855    1.0440  -44.6668 C   0  0  0  0  0  0  0  0  0  0  0  0
  -36.3429    0.6337  -46.6565 C   0  0  0  0  0  0  0  0  0  0  0  0
  -35.2990   -0.3093  -47.2590 C   0  0  0  0  0  0  0  0  0  0  0  0
  -34.3733    0.4576  -48.1023 N   0  0  0  0  0  0  0  0  0  0  0  0
  -33.6469    1.4625  -47.3156 C   0  0  0  0  0  0  0  0  0  0  0  0
  -34.6405    2.4587  -46.7136 C   0  0  0  0  0  0  0  0  0  0  0  0
  -34.8307    3.9357  -44.3045 C   0  0  0  0  0  0  0  0  0  0  0  0
  -34.2805    4.5107  -42.9972 C   0  0  0  0  0  0  0  0  0  0  0  0
  -33.2890   -0.5797  -48.9225 X   0  0  0  0  0  0  0  0  0  0  0  0
  1  2  1  0  0  0  0
  2  3  1  0  0  0  0
  2 15  1  0  0  0  0
  3  4  1  0  0  0  0
  4  5  1  0  0  0  0
  5  6  1  0  0  0  0
  5 14  1  0  0  0  0
  6  7  1  0  0  0  0
  7  8  1  0  0  0  0
  7  9  1  0  0  0  0
  7 13  1  0  0  0  0
  9 10  1  0  0  0  0
 10 11  1  0  0  0  0
 11 12  1  0  0  0  0
 11 16  1  0  0  0  0
 12 13  1  0  0  0  0
 14 15  1  0  0  0  0
M  END
> <Index>
9481

> <PropertyFieldDistance>
nan

$$$$
8266120
BBcorina  12272117083D 1   1.00000     0.00000 
CORINA 4.3.0 0026  30.10.2019
 11 11  0  0  0  0  0  0  0  0999 V2000
  -33.1881    7.4946  -40.0249 C   0  0  0  0  0  0  0  0  0  0  0  0
  -33.5892    6.3565  -40.7903 O   0  0  0  0  0  0  0  0  0  0  0  0
  -34.9268    6.4323  -41.2874 C   0  0  0  0  0  0  0  0  0  0  0  0
  -35.2462    5.1676  -42.0870 C   0  0  0  0  0  0  0  0  0  0  0  0
  -35.1048    3.9415  -41.1827 C   0  0  0  0  0  0  0  0  0  0  0  0
  -36.6793    5.2475  -42.6202 C   0  0  0  0  0  0  0  0  0  0  0  0
  -36.9723    4.0087  -43.4695 C   0  0  0  0  0  0  0  0  0  0  0  0
  -36.0192    3.9414  -44.5845 N   0  0  0  0  0  0  0  0  0  0  0  0
  -34.6396    3.8164  -44.0970 C   0  0  0  0  0  0  0  0  0  0  0  0
  -34.2769    5.0496  -43.2665 C   0  0  0  0  0  0  0  0  0  0  0  0
  -36.4110    2.6621  -45.6494 X   0  0  0  0  0  0  0  0  0  0  0  0
  1  2  1  0  0  0  0
  2  3  1  0  0  0  0
  3  4  1  0  0  0  0
  4  5  1  0  0  0  0
  4  6  1  0  0  0  0
  4 10  1  0  0  0  0
  6  7  1  0  0  0  0
  7  8  1  0  0  0  0
  8  9  1  0  0  0  0
  8 11  1  0  0  0  0
  9 10  1  0  0  0  0
M  END
> <Index>
9490

> <PropertyFieldDistance>
nan

$$$$
9746754
BBcorina  12272117083D 1   1.00000     0.00000 
CORINA 4.3.0 0026  30.10.2019
 14 15  0  0  0  0  0  0  0  0999 V2000
  -38.0881    1.4276  -43.4881 C   0  0  0  0  0  0  0  0  0  0  0  0
  -37.3730    1.5469  -44.8092 C   0  0  0  0  0  0  0  0  0  0  0  0
  -37.7215    0.7406  -45.8800 C   0  0  0  0  0  0  0  0  0  0  0  0
  -37.0434    0.8774  -47.0773 C   0  0  0  0  0  0  0  0  0  0  0  0
  -36.0744    1.7616  -47.2101 N   0  0  0  0  0  0  0  0  0  0  0  0
  -35.7110    2.5484  -46.2169 C   0  0  0  0  0  0  0  0  0  0  0  0
  -36.3448    2.4706  -44.9835 C   0  0  0  0  0  0  0  0  0  0  0  0
  -35.9566    3.3058  -43.9330 N   0  0  0  0  0  0  0  0  0  0  0  0
  -37.0241    4.2576  -43.5950 C   0  0  0  0  0  0  0  0  0  0  0  0
  -36.5917    5.0987  -42.3916 C   0  0  0  0  0  0  0  0  0  0  0  0
  -35.3434    5.8041  -42.7134 N   0  0  0  0  0  0  0  0  0  0  0  0
  -34.2760    4.8523  -43.0515 C   0  0  0  0  0  0  0  0  0  0  0  0
  -34.7083    4.0113  -44.2548 C   0  0  0  0  0  0  0  0  0  0  0  0
  -34.8683    6.8265  -41.4276 X   0  0  0  0  0  0  0  0  0  0  0  0
  1  2  1  0  0  0  0
  2  3  2  0  0  0  0
  2  7  1  0  0  0  0
  3  4  1  0  0  0  0
  4  5  2  0  0  0  0
  5  6  1  0  0  0  0
  6  7  2  0  0  0  0
  7  8  1  0  0  0  0
  8  9  1  0  0  0  0
  8 13  1  0  0  0  0
  9 10  1  0  0  0  0
 10 11  1  0  0  0  0
 11 12  1  0  0  0  0
 11 14  1  0  0  0  0
 12 13  1  0  0  0  0
M  END
> <Index>
9514

> <PropertyFieldDistance>
nan

$$$$
12105356
BBcorina  12272117083D 1   1.00000     0.00000 
CORINA 4.3.0 0026  30.10.2019
 13 14  0  0  0  0  0  0  0  0999 V2000
  -34.9734    6.9062  -41.8779 N   0  0  0  0  0  0  0  0  0  0  0  0
  -35.3835    6.0134  -42.9700 C   0  0  0  0  0  0  0  0  0  0  0  0
  -36.6552    5.2624  -42.5668 C   0  0  0  0  0  0  0  0  0  0  0  0
  -37.0433    4.2897  -43.6828 C   0  0  0  0  0  0  0  0  0  0  0  0
  -35.9454    3.3417  -43.9110 N   0  0  0  0  0  0  0  0  0  0  0  0
  -34.7262    4.0356  -44.3451 C   0  0  0  0  0  0  0  0  0  0  0  0
  -34.2692    5.0008  -43.2488 C   0  0  0  0  0  0  0  0  0  0  0  0
  -36.3354    2.3075  -44.8786 C   0  0  0  0  0  0  0  0  0  0  0  0
  -35.1896    1.2896  -45.0744 C   0  0  0  0  0  0  0  0  0  0  0  0
  -35.7983   -0.0536  -44.6146 C   0  0  0  0  0  0  0  0  0  0  0  0
  -37.2241    0.1141  -44.7720 O   0  0  0  0  0  0  0  0  0  0  0  0
  -37.5032    1.4612  -44.3253 C   0  0  0  0  0  0  0  0  0  0  0  0
  -34.5609    6.0137  -40.4788 X   0  0  0  0  0  0  0  0  0  0  0  0
  1  2  1  0  0  0  0
  1 13  1  0  0  0  0
  2  3  1  0  0  0  0
  2  7  1  0  0  0  0
  3  4  1  0  0  0  0
  4  5  1  0  0  0  0
  5  6  1  0  0  0  0
  5  8  1  0  0  0  0
  6  7  1  0  0  0  0
  8  9  1  0  0  0  0
  8 12  1  0  0  0  0
  9 10  1  0  0  0  0
 10 11  1  0  0  0  0
 11 12  1  0  0  0  0
M  END
> <Index>
9517

> <PropertyFieldDistance>
nan

$$$$
8851856
BBcorina  12272117083D 1   1.00000     0.00000 
CORINA 4.3.0 0026  30.10.2019
 14 15  0  0  0  0  0  0  0  0999 V2000
  -35.6002    1.6240  -45.6696 C   0  0  0  0  0  0  0  0  0  0  0  0
  -36.6614    2.5945  -45.1471 C   0  0  0  0  0  0  0  0  0  0  0  0
  -36.1126    3.3594  -44.0194 N   0  0  0  0  0  0  0  0  0  0  0  0
  -37.0895    4.3381  -43.5218 C   0  0  0  0  0  0  0  0  0  0  0  0
  -36.5108    5.0568  -42.3006 C   0  0  0  0  0  0  0  0  0  0  0  0
  -35.2521    5.7166  -42.6747 N   0  0  0  0  0  0  0  0  0  0  0  0
  -34.2753    4.7379  -43.1722 C   0  0  0  0  0  0  0  0  0  0  0  0
  -34.8539    4.0193  -44.3934 C   0  0  0  0  0  0  0  0  0  0  0  0
  -37.8689    1.8188  -44.6878 C   0  0  0  0  0  0  0  0  0  0  0  0
  -38.9948    1.7648  -45.3157 N   0  0  0  0  0  0  0  0  0  0  0  0
  -39.9508    1.0376  -44.7736 C   0  0  0  0  0  0  0  0  0  0  0  0
  -39.6126    0.4452  -43.6244 C   0  0  0  0  0  0  0  0  0  0  0  0
  -37.9479    0.8891  -43.2549 S   0  0  0  0  0  0  0  0  0  0  0  0
  -34.6133    6.6070  -41.3619 X   0  0  0  0  0  0  0  0  0  0  0  0
  1  2  1  0  0  0  0
  2  3  1  0  0  0  0
  2  9  1  0  0  0  0
  3  4  1  0  0  0  0
  3  8  1  0  0  0  0
  4  5  1  0  0  0  0
  5  6  1  0  0  0  0
  6  7  1  0  0  0  0
  6 14  1  0  0  0  0
  7  8  1  0  0  0  0
  9 10  2  0  0  0  0
  9 13  1  0  0  0  0
 10 11  1  0  0  0  0
 11 12  2  0  0  0  0
 12 13  1  0  0  0  0
M  END
> <Index>
9523

> <PropertyFieldDistance>
nan

$$$$
16517644
BBcorina  12272117083D 1   1.00000     0.00000 
CORINA 4.3.0 0026  30.10.2019
 14 14  0  0  0  0  0  0  0  0999 V2000
  -36.5367    0.6561  -44.2290 O   0  0  0  0  0  0  0  0  0  0  0  0
  -36.9408    1.5689  -45.2516 C   0  0  0  0  0  0  0  0  0  0  0  0
  -35.8614    2.6370  -45.4375 C   0  0  0  0  0  0  0  0  0  0  0  0
  -35.6798    3.3738  -44.1796 N   0  0  0  0  0  0  0  0  0  0  0  0
  -36.8843    4.1453  -43.8427 C   0  0  0  0  0  0  0  0  0  0  0  0
  -36.6846    4.8329  -42.4901 C   0  0  0  0  0  0  0  0  0  0  0  0
  -35.5047    5.7065  -42.5569 N   0  0  0  0  0  0  0  0  0  0  0  0
  -34.3002    4.9349  -42.8938 C   0  0  0  0  0  0  0  0  0  0  0  0
  -34.4999    4.2474  -44.2465 C   0  0  0  0  0  0  0  0  0  0  0  0
  -37.1377    0.8088  -46.5648 C   0  0  0  0  0  0  0  0  0  0  0  0
  -35.9350    0.1970  -46.9344 F   0  0  0  0  0  0  0  0  0  0  0  0
  -38.1248   -0.1680  -46.3949 F   0  0  0  0  0  0  0  0  0  0  0  0
  -37.5334    1.7024  -47.5659 F   0  0  0  0  0  0  0  0  0  0  0  0
  -35.2934    6.5642  -41.0927 X   0  0  0  0  0  0  0  0  0  0  0  0
  1  2  1  0  0  0  0
  2  3  1  0  0  0  0
  2 10  1  0  0  0  0
  3  4  1  0  0  0  0
  4  5  1  0  0  0  0
  4  9  1  0  0  0  0
  5  6  1  0  0  0  0
  6  7  1  0  0  0  0
  7  8  1  0  0  0  0
  7 14  1  0  0  0  0
  8  9  1  0  0  0  0
 10 11  1  0  0  0  0
 10 12  1  0  0  0  0
 10 13  1  0  0  0  0
M  END
> <Index>
9540

> <PropertyFieldDistance>
nan

$$$$
11354042
BBcorina  12272117083D 1   1.00000     0.00000 
CORINA 4.3.0 0026  30.10.2019
 16 17  0  0  0  0  0  0  0  0999 V2000
  -35.5626    1.6327  -45.6558 C   0  0  0  0  0  0  0  0  0  0  0  0
  -36.6762    2.4890  -45.0496 C   0  0  0  0  0  0  0  0  0  0  0  0
  -36.1095    3.3749  -44.0239 N   0  0  0  0  0  0  0  0  0  0  0  0
  -37.0947    4.3727  -43.5877 C   0  0  0  0  0  0  0  0  0  0  0  0
  -36.5218    5.1812  -42.4214 C   0  0  0  0  0  0  0  0  0  0  0  0
  -35.2319    5.8728  -42.8712 C   0  0  0  0  0  0  0  0  0  0  0  0
  -34.2408    4.8156  -43.3658 C   0  0  0  0  0  0  0  0  0  0  0  0
  -34.8799    4.0177  -44.5048 C   0  0  0  0  0  0  0  0  0  0  0  0
  -34.6469    6.6045  -41.7397 N   0  0  0  0  0  0  0  0  0  0  0  0
  -33.6028    7.5457  -42.1999 C   0  0  0  0  0  0  0  0  0  0  0  0
  -33.5019    8.6730  -41.2033 C   0  0  0  0  0  0  0  0  0  0  0  0
  -32.4378    8.4009  -40.1283 C   0  0  0  0  0  0  0  0  0  0  0  0
  -32.4571    6.9980  -39.6551 N   0  0  0  0  0  0  0  0  0  0  0  0
  -33.7867    6.4654  -39.4587 C   0  0  0  0  0  0  0  0  0  0  0  0
  -34.2201    5.7231  -40.7390 C   0  0  0  0  0  0  0  0  0  0  0  0
  -31.5087    6.8141  -38.2441 X   0  0  0  0  0  0  0  0  0  0  0  0
  1  2  1  0  0  0  0
  2  3  1  0  0  0  0
  3  4  1  0  0  0  0
  3  8  1  0  0  0  0
  4  5  1  0  0  0  0
  5  6  1  0  0  0  0
  6  7  1  0  0  0  0
  6  9  1  0  0  0  0
  7  8  1  0  0  0  0
  9 10  1  0  0  0  0
  9 15  1  0  0  0  0
 10 11  1  0  0  0  0
 11 12  1  0  0  0  0
 12 13  1  0  0  0  0
 13 14  1  0  0  0  0
 13 16  1  0  0  0  0
 14 15  1  0  0  0  0
M  END
> <Index>
9549

> <PropertyFieldDistance>
nan

$$$$
9194032
BBcorina  12272117083D 1   1.00000     0.00000 
CORINA 4.3.0 0026  30.10.2019
 12 12  0  0  0  0  0  0  0  0999 V2000
  -37.0011    1.6248  -45.1036 C   0  0  0  0  0  0  0  0  0  0  0  0
  -35.7909    2.5335  -45.3285 C   0  0  0  0  0  0  0  0  0  0  0  0
  -34.5250    1.6806  -45.4321 C   0  0  0  0  0  0  0  0  0  0  0  0
  -34.3877    0.8865  -44.2520 O   0  0  0  0  0  0  0  0  0  0  0  0
  -35.6623    3.4658  -44.2005 N   0  0  0  0  0  0  0  0  0  0  0  0
  -36.8997    4.2562  -44.0223 C   0  0  0  0  0  0  0  0  0  0  0  0
  -36.9935    4.6792  -42.5780 C   0  0  0  0  0  0  0  0  0  0  0  0
  -36.3668    6.0620  -42.3384 C   0  0  0  0  0  0  0  0  0  0  0  0
  -35.0977    6.2442  -43.0791 N   0  0  0  0  0  0  0  0  0  0  0  0
  -34.2358    5.0837  -43.0564 C   0  0  0  0  0  0  0  0  0  0  0  0
  -34.5021    4.2405  -44.3196 C   0  0  0  0  0  0  0  0  0  0  0  0
  -34.2659    7.6362  -42.5364 X   0  0  0  0  0  0  0  0  0  0  0  0
  1  2  1  0  0  0  0
  2  3  1  0  0  0  0
  2  5  1  0  0  0  0
  3  4  1  0  0  0  0
  5  6  1  0  0  0  0
  5 11  1  0  0  0  0
  6  7  1  0  0  0  0
  7  8  1  0  0  0  0
  8  9  1  0  0  0  0
  9 10  1  0  0  0  0
  9 12  1  0  0  0  0
 10 11  1  0  0  0  0
M  END
> <Index>
9550

> <PropertyFieldDistance>
nan

$$$$
9045572
BBcorina  12272117083D 1   1.00000     0.00000 
CORINA 4.3.0 0026  30.10.2019
 14 14  0  0  0  0  0  0  0  0999 V2000
  -38.3635    0.1440  -44.0246 C   0  0  0  0  0  0  0  0  0  0  0  0
  -37.2338    1.0542  -44.0856 O   0  0  0  0  0  0  0  0  0  0  0  0
  -36.9879    1.6420  -45.2671 C   0  0  0  0  0  0  0  0  0  0  0  0
  -37.6933    1.4037  -46.2188 O   0  0  0  0  0  0  0  0  0  0  0  0
  -35.8285    2.5942  -45.4083 C   0  0  0  0  0  0  0  0  0  0  0  0
  -34.5508    1.8030  -45.6951 C   0  0  0  0  0  0  0  0  0  0  0  0
  -36.0999    3.5607  -46.5628 C   0  0  0  0  0  0  0  0  0  0  0  0
  -35.6644    3.3541  -44.1618 N   0  0  0  0  0  0  0  0  0  0  0  0
  -36.8749    4.1281  -43.8536 C   0  0  0  0  0  0  0  0  0  0  0  0
  -36.6937    4.8405  -42.5112 C   0  0  0  0  0  0  0  0  0  0  0  0
  -35.5154    5.7161  -42.5794 N   0  0  0  0  0  0  0  0  0  0  0  0
  -34.3048    4.9420  -42.8875 C   0  0  0  0  0  0  0  0  0  0  0  0
  -34.4861    4.2296  -44.2299 C   0  0  0  0  0  0  0  0  0  0  0  0
  -35.3245    6.6006  -41.1284 X   0  0  0  0  0  0  0  0  0  0  0  0
  1  2  1  0  0  0  0
  2  3  1  0  0  0  0
  3  4  2  0  0  0  0
  3  5  1  0  0  0  0
  5  6  1  0  0  0  0
  5  7  1  0  0  0  0
  5  8  1  0  0  0  0
  8  9  1  0  0  0  0
  8 13  1  0  0  0  0
  9 10  1  0  0  0  0
 10 11  1  0  0  0  0
 11 12  1  0  0  0  0
 11 14  1  0  0  0  0
 12 13  1  0  0  0  0
M  END
> <Index>
9566

> <PropertyFieldDistance>
nan

$$$$
10123844
BBcorina  12272117083D 1   1.00000     0.00000 
CORINA 4.3.0 0026  30.10.2019
 14 14  0  0  0  0  0  0  0  0999 V2000
  -35.3444    0.5655  -44.5650 C   0  0  0  0  0  0  0  0  0  0  0  0
  -35.6112    1.6046  -45.6558 C   0  0  0  0  0  0  0  0  0  0  0  0
  -36.6561    2.6066  -45.1611 C   0  0  0  0  0  0  0  0  0  0  0  0
  -36.1096    3.3646  -44.0276 N   0  0  0  0  0  0  0  0  0  0  0  0
  -37.0881    4.3391  -43.5250 C   0  0  0  0  0  0  0  0  0  0  0  0
  -36.5117    5.0503  -42.2984 C   0  0  0  0  0  0  0  0  0  0  0  0
  -35.2532    5.7139  -42.6664 N   0  0  0  0  0  0  0  0  0  0  0  0
  -34.2748    4.7394  -43.1690 C   0  0  0  0  0  0  0  0  0  0  0  0
  -34.8511    4.0282  -44.3956 C   0  0  0  0  0  0  0  0  0  0  0  0
  -37.0093    3.5561  -46.2768 C   0  0  0  0  0  0  0  0  0  0  0  0
  -36.8248    4.7425  -46.1415 O   0  0  0  0  0  0  0  0  0  0  0  0
  -37.5290    3.0839  -47.4207 O   0  0  0  0  0  0  0  0  0  0  0  0
  -37.8453    4.0560  -48.4518 C   0  0  0  0  0  0  0  0  0  0  0  0
  -34.6170    6.5962  -41.3470 X   0  0  0  0  0  0  0  0  0  0  0  0
  1  2  1  0  0  0  0
  2  3  1  0  0  0  0
  3  4  1  0  0  0  0
  3 10  1  0  0  0  0
  4  5  1  0  0  0  0
  4  9  1  0  0  0  0
  5  6  1  0  0  0  0
  6  7  1  0  0  0  0
  7  8  1  0  0  0  0
  7 14  1  0  0  0  0
  8  9  1  0  0  0  0
 10 11  2  0  0  0  0
 10 12  1  0  0  0  0
 12 13  1  0  0  0  0
M  END
> <Index>
9567

> <PropertyFieldDistance>
nan

$$$$
6665436
BBcorina  12272117083D 1   1.00000     0.00000 
CORINA 4.3.0 0026  30.10.2019
 13 14  0  0  0  0  0  0  0  0999 V2000
  -35.2497    5.7277  -42.7076 N   0  0  0  0  0  0  0  0  0  0  0  0
  -36.5085    5.0811  -42.3116 C   0  0  0  0  0  0  0  0  0  0  0  0
  -37.0937    4.3323  -43.5114 C   0  0  0  0  0  0  0  0  0  0  0  0
  -36.1213    3.3384  -43.9870 N   0  0  0  0  0  0  0  0  0  0  0  0
  -36.6764    2.5459  -45.0923 C   0  0  0  0  0  0  0  0  0  0  0  0
  -35.5665    1.7022  -45.7226 C   0  0  0  0  0  0  0  0  0  0  0  0
  -36.1050    0.8912  -46.9264 C   0  0  0  0  0  0  0  0  0  0  0  0
  -35.4321   -0.4878  -46.7840 C   0  0  0  0  0  0  0  0  0  0  0  0
  -34.5647   -0.4239  -45.6395 O   0  0  0  0  0  0  0  0  0  0  0  0
  -35.1061    0.5821  -44.7552 C   0  0  0  0  0  0  0  0  0  0  0  0
  -34.8625    3.9851  -44.3830 C   0  0  0  0  0  0  0  0  0  0  0  0
  -34.2773    4.7339  -43.1833 C   0  0  0  0  0  0  0  0  0  0  0  0
  -34.6035    6.6503  -41.4210 X   0  0  0  0  0  0  0  0  0  0  0  0
  1  2  1  0  0  0  0
  1 12  1  0  0  0  0
  1 13  1  0  0  0  0
  2  3  1  0  0  0  0
  3  4  1  0  0  0  0
  4  5  1  0  0  0  0
  4 11  1  0  0  0  0
  5  6  1  0  0  0  0
  6  7  1  0  0  0  0
  6 10  1  0  0  0  0
  7  8  1  0  0  0  0
  8  9  1  0  0  0  0
  9 10  1  0  0  0  0
 11 12  1  0  0  0  0
M  END
> <Index>
9577

> <PropertyFieldDistance>
nan

$$$$
13818076
BBcorina  12272117083D 1   1.00000     0.00000 
CORINA 4.3.0 0026  30.10.2019
 13 14  0  0  0  0  0  0  0  0999 V2000
  -36.0194    3.9412  -44.5845 N   0  0  0  0  0  0  0  0  0  0  0  0
  -36.9723    4.0085  -43.4693 C   0  0  0  0  0  0  0  0  0  0  0  0
  -36.6796    5.2477  -42.6204 C   0  0  0  0  0  0  0  0  0  0  0  0
  -35.2463    5.1684  -42.0874 C   0  0  0  0  0  0  0  0  0  0  0  0
  -34.9272    6.4334  -41.2883 C   0  0  0  0  0  0  0  0  0  0  0  0
  -33.5614    6.3025  -40.6648 C   0  0  0  0  0  0  0  0  0  0  0  0
  -32.5394    7.1675  -40.8094 C   0  0  0  0  0  0  0  0  0  0  0  0
  -31.4932    6.6696  -40.0804 N   0  0  0  0  0  0  0  0  0  0  0  0
  -31.9127    5.5171  -39.5154 C   0  0  0  0  0  0  0  0  0  0  0  0
  -33.1506    5.3039  -39.8693 N   0  0  0  0  0  0  0  0  0  0  0  0
  -34.2763    5.0495  -43.2663 C   0  0  0  0  0  0  0  0  0  0  0  0
  -34.6397    3.8168  -44.0972 C   0  0  0  0  0  0  0  0  0  0  0  0
  -36.4111    2.6615  -45.6490 X   0  0  0  0  0  0  0  0  0  0  0  0
  1  2  1  0  0  0  0
  1 12  1  0  0  0  0
  1 13  1  0  0  0  0
  2  3  1  0  0  0  0
  3  4  1  0  0  0  0
  4  5  1  0  0  0  0
  4 11  1  0  0  0  0
  5  6  1  0  0  0  0
  6  7  2  0  0  0  0
  6 10  1  0  0  0  0
  7  8  1  0  0  0  0
  8  9  1  0  0  0  0
  9 10  2  0  0  0  0
 11 12  1  0  0  0  0
M  END
> <Index>
9614

> <PropertyFieldDistance>
nan

$$$$
9048710
BBcorina  12272117083D 1   1.00000     0.00000 
CORINA 4.3.0 0026  30.10.2019
 13 14  0  0  0  0  0  0  0  0999 V2000
  -35.9479    3.4664  -44.1722 N   0  0  0  0  0  0  0  0  0  0  0  0
  -37.0290    4.3869  -43.7978 C   0  0  0  0  0  0  0  0  0  0  0  0
  -36.6587    5.1099  -42.5007 C   0  0  0  0  0  0  0  0  0  0  0  0
  -35.3534    5.8832  -42.7080 C   0  0  0  0  0  0  0  0  0  0  0  0
  -34.2558    4.9088  -43.1443 C   0  0  0  0  0  0  0  0  0  0  0  0
  -34.6958    4.1916  -44.4227 C   0  0  0  0  0  0  0  0  0  0  0  0
  -34.9632    6.5300  -41.4528 N   0  0  0  0  0  0  0  0  0  0  0  0
  -34.1845    7.6299  -41.4752 C   0  0  0  0  0  0  0  0  0  0  0  0
  -33.8070    8.0841  -42.5345 O   0  0  0  0  0  0  0  0  0  0  0  0
  -33.7830    8.2954  -40.1842 C   0  0  0  0  0  0  0  0  0  0  0  0
  -32.8983    9.5402  -40.2763 C   0  0  0  0  0  0  0  0  0  0  0  0
  -34.3720    9.6761  -39.8880 C   0  0  0  0  0  0  0  0  0  0  0  0
  -36.3897    2.5209  -45.5268 X   0  0  0  0  0  0  0  0  0  0  0  0
  1  2  1  0  0  0  0
  1  6  1  0  0  0  0
  1 13  1  0  0  0  0
  2  3  1  0  0  0  0
  3  4  1  0  0  0  0
  4  5  1  0  0  0  0
  4  7  1  0  0  0  0
  5  6  1  0  0  0  0
  7  8  1  0  0  0  0
  8  9  2  0  0  0  0
  8 10  1  0  0  0  0
 10 11  1  0  0  0  0
 10 12  1  0  0  0  0
 11 12  1  0  0  0  0
M  END
> <Index>
9660

> <PropertyFieldDistance>
nan

$$$$
16887686
BBcorina  12272117083D 1   1.00000     0.00000 
CORINA 4.3.0 0026  30.10.2019
 12 12  0  0  0  0  0  0  0  0999 V2000
  -32.5539    6.0374  -41.8817 C   0  0  0  0  0  0  0  0  0  0  0  0
  -32.9041    4.9144  -42.7616 N   0  0  0  0  0  0  0  0  0  0  0  0
  -31.9456    4.7938  -43.8682 C   0  0  0  0  0  0  0  0  0  0  0  0
  -30.5728    4.4076  -43.3140 C   0  0  0  0  0  0  0  0  0  0  0  0
  -30.6436    3.1046  -42.7317 O   0  0  0  0  0  0  0  0  0  0  0  0
  -34.2770    5.0496  -43.2665 C   0  0  0  0  0  0  0  0  0  0  0  0
  -35.2462    5.1676  -42.0869 C   0  0  0  0  0  0  0  0  0  0  0  0
  -36.6793    5.2476  -42.6202 C   0  0  0  0  0  0  0  0  0  0  0  0
  -36.9723    4.0087  -43.4695 C   0  0  0  0  0  0  0  0  0  0  0  0
  -36.0192    3.9414  -44.5845 N   0  0  0  0  0  0  0  0  0  0  0  0
  -34.6396    3.8164  -44.0970 C   0  0  0  0  0  0  0  0  0  0  0  0
  -36.4111    2.6622  -45.6495 X   0  0  0  0  0  0  0  0  0  0  0  0
  1  2  1  0  0  0  0
  2  3  1  0  0  0  0
  2  6  1  0  0  0  0
  3  4  1  0  0  0  0
  4  5  1  0  0  0  0
  6  7  1  0  0  0  0
  6 11  1  0  0  0  0
  7  8  1  0  0  0  0
  8  9  1  0  0  0  0
  9 10  1  0  0  0  0
 10 11  1  0  0  0  0
 10 12  1  0  0  0  0
M  END
> <Index>
9670

> <PropertyFieldDistance>
nan

$$$$
10684446
BBcorina  12272117083D 1   1.00000     0.00000 
CORINA 4.3.0 0026  30.10.2019
 13 14  0  0  0  0  0  0  0  0999 V2000
  -37.0605    1.9965  -47.2220 N   0  0  0  0  0  0  0  0  0  0  0  0
  -35.9473    1.0772  -47.4903 C   0  0  0  0  0  0  0  0  0  0  0  0
  -35.5813    0.3288  -46.2067 C   0  0  0  0  0  0  0  0  0  0  0  0
  -35.1840    1.3400  -45.1277 C   0  0  0  0  0  0  0  0  0  0  0  0
  -36.3427    2.3152  -44.9018 C   0  0  0  0  0  0  0  0  0  0  0  0
  -36.6866    3.0060  -46.2234 C   0  0  0  0  0  0  0  0  0  0  0  0
  -35.9484    3.3238  -43.9093 N   0  0  0  0  0  0  0  0  0  0  0  0
  -37.0376    4.2819  -43.6704 C   0  0  0  0  0  0  0  0  0  0  0  0
  -36.6072    5.2766  -42.5891 C   0  0  0  0  0  0  0  0  0  0  0  0
  -35.3979    5.9223  -42.9967 O   0  0  0  0  0  0  0  0  0  0  0  0
  -34.3157    5.0188  -43.2373 C   0  0  0  0  0  0  0  0  0  0  0  0
  -34.7230    4.0215  -44.3252 C   0  0  0  0  0  0  0  0  0  0  0  0
  -37.6072    2.7344  -48.6645 X   0  0  0  0  0  0  0  0  0  0  0  0
  1  2  1  0  0  0  0
  1  6  1  0  0  0  0
  1 13  1  0  0  0  0
  2  3  1  0  0  0  0
  3  4  1  0  0  0  0
  4  5  1  0  0  0  0
  5  6  1  0  0  0  0
  5  7  1  0  0  0  0
  7  8  1  0  0  0  0
  7 12  1  0  0  0  0
  8  9  1  0  0  0  0
  9 10  1  0  0  0  0
 10 11  1  0  0  0  0
 11 12  1  0  0  0  0
M  END
> <Index>
9671

> <PropertyFieldDistance>
nan

$$$$
10207426
BBcorina  12272117083D 1   1.00000     0.00000 
CORINA 4.3.0 0026  30.10.2019
 12 13  0  0  0  0  0  0  0  0999 V2000
  -34.0114    5.9057  -42.7371 O   0  0  0  0  0  0  0  0  0  0  0  0
  -35.0487    5.3737  -43.5634 C   0  0  0  0  0  0  0  0  0  0  0  0
  -36.3861    5.2931  -42.7812 C   0  0  0  0  0  0  0  0  0  0  0  0
  -37.1153    4.1469  -43.5256 C   0  0  0  0  0  0  0  0  0  0  0  0
  -36.0497    3.1807  -43.8676 N   0  0  0  0  0  0  0  0  0  0  0  0
  -34.7629    3.8988  -43.9162 C   0  0  0  0  0  0  0  0  0  0  0  0
  -36.3312    2.5177  -45.1478 C   0  0  0  0  0  0  0  0  0  0  0  0
  -37.6852    1.7622  -45.0963 C   0  0  0  0  0  0  0  0  0  0  0  0
  -37.5013    0.6470  -46.1471 C   0  0  0  0  0  0  0  0  0  0  0  0
  -36.0512    0.4414  -46.3166 N   0  0  0  0  0  0  0  0  0  0  0  0
  -35.3359    1.3587  -45.4041 C   0  0  0  0  0  0  0  0  0  0  0  0
  -35.6230   -1.1854  -46.0099 X   0  0  0  0  0  0  0  0  0  0  0  0
  1  2  1  0  0  0  0
  2  3  1  0  0  0  0
  2  6  1  0  0  0  0
  3  4  1  0  0  0  0
  4  5  1  0  0  0  0
  5  6  1  0  0  0  0
  5  7  1  0  0  0  0
  7  8  1  0  0  0  0
  7 11  1  0  0  0  0
  8  9  1  0  0  0  0
  9 10  1  0  0  0  0
 10 11  1  0  0  0  0
 10 12  1  0  0  0  0
M  END
> <Index>
9672

> <PropertyFieldDistance>
nan

$$$$
12335862
BBcorina  12272117083D 1   1.00000     0.00000 
CORINA 4.3.0 0026  30.10.2019
 12 12  0  0  0  0  0  0  0  0999 V2000
  -35.2457    0.5253  -47.8858 C   0  0  0  0  0  0  0  0  0  0  0  0
  -35.9750    0.7533  -46.6511 O   0  0  0  0  0  0  0  0  0  0  0  0
  -35.7881    1.9349  -46.0422 C   0  0  0  0  0  0  0  0  0  0  0  0
  -35.0397    2.7515  -46.5249 O   0  0  0  0  0  0  0  0  0  0  0  0
  -36.5115    2.2427  -44.7565 C   0  0  0  0  0  0  0  0  0  0  0  0
  -36.1399    3.5871  -44.2955 N   0  0  0  0  0  0  0  0  0  0  0  0
  -36.9965    4.0172  -43.1815 C   0  0  0  0  0  0  0  0  0  0  0  0
  -36.6309    5.4493  -42.7840 C   0  0  0  0  0  0  0  0  0  0  0  0
  -35.2122    5.5026  -42.4046 N   0  0  0  0  0  0  0  0  0  0  0  0
  -34.3556    5.0724  -43.5184 C   0  0  0  0  0  0  0  0  0  0  0  0
  -34.7212    3.6403  -43.9160 C   0  0  0  0  0  0  0  0  0  0  0  0
  -34.7797    7.0674  -41.8678 X   0  0  0  0  0  0  0  0  0  0  0  0
  1  2  1  0  0  0  0
  2  3  1  0  0  0  0
  3  4  2  0  0  0  0
  3  5  1  0  0  0  0
  5  6  1  0  0  0  0
  6  7  1  0  0  0  0
  6 11  1  0  0  0  0
  7  8  1  0  0  0  0
  8  9  1  0  0  0  0
  9 10  1  0  0  0  0
  9 12  1  0  0  0  0
 10 11  1  0  0  0  0
M  END
> <Index>
9688

> <PropertyFieldDistance>
nan

$$$$
10154232
BBcorina  12272117083D 1   1.00000     0.00000 
CORINA 4.3.0 0026  30.10.2019
 16 17  0  0  0  0  0  0  0  0999 V2000
  -35.5944    0.7808  -48.0121 C   0  0  0  0  0  0  0  0  0  0  0  0
  -36.4228    1.3946  -46.9713 N   0  0  0  0  0  0  0  0  0  0  0  0
  -37.8806    1.4181  -47.1144 C   0  0  0  0  0  0  0  0  0  0  0  0
  -35.8437    1.9378  -45.8822 C   0  0  0  0  0  0  0  0  0  0  0  0
  -34.6368    1.9182  -45.7638 O   0  0  0  0  0  0  0  0  0  0  0  0
  -36.6958    2.5692  -44.8116 C   0  0  0  0  0  0  0  0  0  0  0  0
  -35.8309    3.2132  -43.8140 N   0  0  0  0  0  0  0  0  0  0  0  0
  -36.6393    3.9144  -42.7811 C   0  0  0  0  0  0  0  0  0  0  0  0
  -37.0931    5.2193  -43.4752 C   0  0  0  0  0  0  0  0  0  0  0  0
  -36.0305    5.4782  -44.5635 C   0  0  0  0  0  0  0  0  0  0  0  0
  -35.0312    4.3063  -44.4281 C   0  0  0  0  0  0  0  0  0  0  0  0
  -33.9516    4.7236  -43.4167 C   0  0  0  0  0  0  0  0  0  0  0  0
  -34.6334    5.3119  -42.1781 C   0  0  0  0  0  0  0  0  0  0  0  0
  -35.6852    4.2970  -41.6383 C   0  0  0  0  0  0  0  0  0  0  0  0
  -33.6230    5.5840  -41.1471 N   0  0  0  0  0  0  0  0  0  0  0  0
  -32.7324    4.1727  -40.7742 X   0  0  0  0  0  0  0  0  0  0  0  0
  1  2  1  0  0  0  0
  2  3  1  0  0  0  0
  2  4  1  0  0  0  0
  4  5  2  0  0  0  0
  4  6  1  0  0  0  0
  6  7  1  0  0  0  0
  7  8  1  0  0  0  0
  7 11  1  0  0  0  0
  8  9  1  0  0  0  0
  8 14  1  0  0  0  0
  9 10  1  0  0  0  0
 10 11  1  0  0  0  0
 11 12  1  0  0  0  0
 12 13  1  0  0  0  0
 13 14  1  0  0  0  0
 13 15  1  0  0  0  0
 15 16  1  0  0  0  0
M  END
> <Index>
9701

> <PropertyFieldDistance>
nan

$$$$
6508038
BBcorina  12272117083D 1   1.00000     0.00000 
CORINA 4.3.0 0026  30.10.2019
 16 17  0  0  0  0  0  0  0  0999 V2000
  -34.6131   -1.2604  -47.3007 C   0  0  0  0  0  0  0  0  0  0  0  0
  -35.1372    0.1277  -47.6737 C   0  0  0  0  0  0  0  0  0  0  0  0
  -35.9157    0.6984  -46.5164 C   0  0  0  0  0  0  0  0  0  0  0  0
  -35.5835    1.9315  -45.9912 C   0  0  0  0  0  0  0  0  0  0  0  0
  -36.3335    2.4189  -44.9185 C   0  0  0  0  0  0  0  0  0  0  0  0
  -37.3303    1.6793  -44.4418 N   0  0  0  0  0  0  0  0  0  0  0  0
  -37.6159    0.5097  -44.9777 C   0  0  0  0  0  0  0  0  0  0  0  0
  -36.9273    0.0224  -45.9899 N   0  0  0  0  0  0  0  0  0  0  0  0
  -36.0398    3.6507  -44.3565 N   0  0  0  0  0  0  0  0  0  0  0  0
  -36.9544    3.9551  -43.2487 C   0  0  0  0  0  0  0  0  0  0  0  0
  -36.6963    5.3783  -42.7488 C   0  0  0  0  0  0  0  0  0  0  0  0
  -35.2427    5.4943  -42.2819 C   0  0  0  0  0  0  0  0  0  0  0  0
  -34.3118    5.1253  -43.4403 C   0  0  0  0  0  0  0  0  0  0  0  0
  -34.6390    3.7095  -43.9202 C   0  0  0  0  0  0  0  0  0  0  0  0
  -34.9727    6.8739  -41.8555 N   0  0  0  0  0  0  0  0  0  0  0  0
  -33.7814    6.9142  -40.6293 X   0  0  0  0  0  0  0  0  0  0  0  0
  1  2  1  0  0  0  0
  2  3  1  0  0  0  0
  3  4  2  0  0  0  0
  3  8  1  0  0  0  0
  4  5  1  0  0  0  0
  5  6  2  0  0  0  0
  5  9  1  0  0  0  0
  6  7  1  0  0  0  0
  7  8  2  0  0  0  0
  9 10  1  0  0  0  0
  9 14  1  0  0  0  0
 10 11  1  0  0  0  0
 11 12  1  0  0  0  0
 12 13  1  0  0  0  0
 12 15  1  0  0  0  0
 13 14  1  0  0  0  0
 15 16  1  0  0  0  0
M  END
> <Index>
9702

> <PropertyFieldDistance>
nan

$$$$
16508220
BBcorina  12272117083D 1   1.00000     0.00000 
CORINA 4.3.0 0026  30.10.2019
 18 18  0  0  0  0  0  0  0  0999 V2000
  -34.0035    6.4670  -38.5203 C   0  0  0  0  0  0  0  0  0  0  0  0
  -35.1977    5.5222  -38.6687 C   0  0  0  0  0  0  0  0  0  0  0  0
  -36.2945    5.9274  -37.6818 C   0  0  0  0  0  0  0  0  0  0  0  0
  -34.7528    4.0878  -38.3760 C   0  0  0  0  0  0  0  0  0  0  0  0
  -35.7126    5.6020  -40.0240 O   0  0  0  0  0  0  0  0  0  0  0  0
  -34.8669    5.2753  -41.0194 C   0  0  0  0  0  0  0  0  0  0  0  0
  -33.7298    4.9328  -40.7625 O   0  0  0  0  0  0  0  0  0  0  0  0
  -35.2816    5.3282  -42.3007 N   0  0  0  0  0  0  0  0  0  0  0  0
  -36.6420    5.7403  -42.5706 C   0  0  0  0  0  0  0  0  0  0  0  0
  -37.5631    4.4948  -42.6053 C   0  0  0  0  0  0  0  0  0  0  0  0
  -37.2604    3.6845  -43.8006 C   0  0  0  0  0  0  0  0  0  0  0  0
  -35.8987    3.1521  -43.8399 N   0  0  0  0  0  0  0  0  0  0  0  0
  -35.8586    1.8599  -44.5375 C   0  0  0  0  0  0  0  0  0  0  0  0
  -36.2188    2.0641  -46.0104 C   0  0  0  0  0  0  0  0  0  0  0  0
  -36.2753    0.7607  -46.6859 N   0  0  0  0  0  0  0  0  0  0  0  0
  -34.9968    4.1023  -44.4559 C   0  0  0  0  0  0  0  0  0  0  0  0
  -34.3269    4.9623  -43.3677 C   0  0  0  0  0  0  0  0  0  0  0  0
  -36.6758    0.9437  -48.3382 X   0  0  0  0  0  0  0  0  0  0  0  0
  1  2  1  0  0  0  0
  2  3  1  0  0  0  0
  2  4  1  0  0  0  0
  2  5  1  0  0  0  0
  5  6  1  0  0  0  0
  6  7  2  0  0  0  0
  6  8  1  0  0  0  0
  8  9  1  0  0  0  0
  8 17  1  0  0  0  0
  9 10  1  0  0  0  0
 10 11  1  0  0  0  0
 11 12  1  0  0  0  0
 12 13  1  0  0  0  0
 12 16  1  0  0  0  0
 13 14  1  0  0  0  0
 14 15  1  0  0  0  0
 15 18  1  0  0  0  0
 16 17  1  0  0  0  0
M  END
> <Index>
9705

> <PropertyFieldDistance>
nan

$$$$
16720330
BBcorina  12272117083D 1   1.00000     0.00000 
CORINA 4.3.0 0026  30.10.2019
 13 13  0  0  0  0  0  0  0  0999 V2000
  -38.0988    0.7358  -47.4143 C   0  0  0  0  0  0  0  0  0  0  0  0
  -36.8856    1.2426  -46.8545 O   0  0  0  0  0  0  0  0  0  0  0  0
  -37.0750    2.0468  -45.6886 C   0  0  0  0  0  0  0  0  0  0  0  0
  -35.7373    2.5251  -45.1855 C   0  0  0  0  0  0  0  0  0  0  0  0
  -34.7219    2.2085  -45.7682 O   0  0  0  0  0  0  0  0  0  0  0  0
  -35.6695    3.3047  -44.0883 N   0  0  0  0  0  0  0  0  0  0  0  0
  -36.8913    3.7017  -43.3753 C   0  0  0  0  0  0  0  0  0  0  0  0
  -36.9147    5.2229  -43.2371 C   0  0  0  0  0  0  0  0  0  0  0  0
  -35.6184    5.6926  -42.5731 C   0  0  0  0  0  0  0  0  0  0  0  0
  -34.4248    5.3037  -43.4484 C   0  0  0  0  0  0  0  0  0  0  0  0
  -34.3728    3.7788  -43.5858 C   0  0  0  0  0  0  0  0  0  0  0  0
  -33.1835    5.7826  -42.8259 N   0  0  0  0  0  0  0  0  0  0  0  0
  -32.0006    6.1351  -44.0094 X   0  0  0  0  0  0  0  0  0  0  0  0
  1  2  1  0  0  0  0
  2  3  1  0  0  0  0
  3  4  1  0  0  0  0
  4  5  2  0  0  0  0
  4  6  1  0  0  0  0
  6  7  1  0  0  0  0
  6 11  1  0  0  0  0
  7  8  1  0  0  0  0
  8  9  1  0  0  0  0
  9 10  1  0  0  0  0
 10 11  1  0  0  0  0
 10 12  1  0  0  0  0
 12 13  1  0  0  0  0
M  END
> <Index>
9720

> <PropertyFieldDistance>
nan

$$$$
13755862
BBcorina  12272117083D 1   1.00000     0.00000 
CORINA 4.3.0 0026  30.10.2019
 13 14  0  0  0  0  0  0  0  0999 V2000
  -35.2517    5.7273  -42.7086 N   0  0  0  0  0  0  0  0  0  0  0  0
  -36.5104    5.0791  -42.3144 C   0  0  0  0  0  0  0  0  0  0  0  0
  -37.0927    4.3293  -43.5148 C   0  0  0  0  0  0  0  0  0  0  0  0
  -36.1183    3.3364  -43.9885 N   0  0  0  0  0  0  0  0  0  0  0  0
  -36.6706    2.5427  -45.0944 C   0  0  0  0  0  0  0  0  0  0  0  0
  -35.5754    1.7129  -45.7132 C   0  0  0  0  0  0  0  0  0  0  0  0
  -34.7361    2.0942  -46.6449 N   0  0  0  0  0  0  0  0  0  0  0  0
  -33.9536    1.1042  -46.9051 N   0  0  0  0  0  0  0  0  0  0  0  0
  -34.2771    0.0987  -46.1691 N   0  0  0  0  0  0  0  0  0  0  0  0
  -35.2728    0.4344  -45.4204 N   0  0  0  0  0  0  0  0  0  0  0  0
  -34.8596    3.9845  -44.3828 C   0  0  0  0  0  0  0  0  0  0  0  0
  -34.2772    4.7345  -43.1823 C   0  0  0  0  0  0  0  0  0  0  0  0
  -34.6087    6.6511  -41.4213 X   0  0  0  0  0  0  0  0  0  0  0  0
  1  2  1  0  0  0  0
  1 12  1  0  0  0  0
  1 13  1  0  0  0  0
  2  3  1  0  0  0  0
  3  4  1  0  0  0  0
  4  5  1  0  0  0  0
  4 11  1  0  0  0  0
  5  6  1  0  0  0  0
  6  7  2  0  0  0  0
  6 10  1  0  0  0  0
  7  8  1  0  0  0  0
  8  9  2  0  0  0  0
  9 10  1  0  0  0  0
 11 12  1  0  0  0  0
M  END
> <Index>
9755

> <PropertyFieldDistance>
nan

$$$$
12496584
BBcorina  12272117083D 1   1.00000     0.00000 
CORINA 4.3.0 0026  30.10.2019
 13 13  0  0  0  0  0  0  0  0999 V2000
  -35.4803    1.1901  -48.3786 C   0  0  0  0  0  0  0  0  0  0  0  0
  -36.3929    1.7390  -47.3669 N   0  0  0  0  0  0  0  0  0  0  0  0
  -35.6502    2.2244  -46.1959 C   0  0  0  0  0  0  0  0  0  0  0  0
  -36.6175    2.7788  -45.1820 C   0  0  0  0  0  0  0  0  0  0  0  0
  -37.8083    2.7704  -45.4121 O   0  0  0  0  0  0  0  0  0  0  0  0
  -36.1592    3.2840  -44.0196 N   0  0  0  0  0  0  0  0  0  0  0  0
  -37.0859    3.8300  -43.0163 C   0  0  0  0  0  0  0  0  0  0  0  0
  -36.6032    5.2288  -42.6182 C   0  0  0  0  0  0  0  0  0  0  0  0
  -35.1993    5.1564  -42.1919 N   0  0  0  0  0  0  0  0  0  0  0  0
  -34.7498    6.4415  -41.6400 C   0  0  0  0  0  0  0  0  0  0  0  0
  -34.3298    4.7229  -43.2945 C   0  0  0  0  0  0  0  0  0  0  0  0
  -34.7194    3.3034  -43.7204 C   0  0  0  0  0  0  0  0  0  0  0  0
  -37.3695    2.9765  -48.0293 X   0  0  0  0  0  0  0  0  0  0  0  0
  1  2  1  0  0  0  0
  2  3  1  0  0  0  0
  2 13  1  0  0  0  0
  3  4  1  0  0  0  0
  4  5  2  0  0  0  0
  4  6  1  0  0  0  0
  6  7  1  0  0  0  0
  6 12  1  0  0  0  0
  7  8  1  0  0  0  0
  8  9  1  0  0  0  0
  9 10  1  0  0  0  0
  9 11  1  0  0  0  0
 11 12  1  0  0  0  0
M  END
> <Index>
9756

> <PropertyFieldDistance>
nan

$$$$
10391034
BBcorina  12272117083D 1   1.00000     0.00000 
CORINA 4.3.0 0026  30.10.2019
 13 13  0  0  0  0  0  0  0  0999 V2000
  -36.3336    4.8500  -38.8914 C   0  0  0  0  0  0  0  0  0  0  0  0
  -36.7229    5.8785  -39.8039 O   0  0  0  0  0  0  0  0  0  0  0  0
  -35.6601    6.7224  -40.2081 N   0  0  0  0  0  0  0  0  0  0  0  0
  -35.3534    7.9325  -39.4415 C   0  0  0  0  0  0  0  0  0  0  0  0
  -34.9307    6.4122  -41.2983 C   0  0  0  0  0  0  0  0  0  0  0  0
  -34.0204    7.1350  -41.6444 O   0  0  0  0  0  0  0  0  0  0  0  0
  -35.2462    5.1675  -42.0868 C   0  0  0  0  0  0  0  0  0  0  0  0
  -36.6793    5.2476  -42.6203 C   0  0  0  0  0  0  0  0  0  0  0  0
  -36.9723    4.0086  -43.4694 C   0  0  0  0  0  0  0  0  0  0  0  0
  -36.0191    3.9414  -44.5845 N   0  0  0  0  0  0  0  0  0  0  0  0
  -34.6396    3.8164  -44.0971 C   0  0  0  0  0  0  0  0  0  0  0  0
  -34.2769    5.0496  -43.2664 C   0  0  0  0  0  0  0  0  0  0  0  0
  -36.4111    2.6624  -45.6495 X   0  0  0  0  0  0  0  0  0  0  0  0
  1  2  1  0  0  0  0
  2  3  1  0  0  0  0
  3  4  1  0  0  0  0
  3  5  1  0  0  0  0
  5  6  2  0  0  0  0
  5  7  1  0  0  0  0
  7  8  1  0  0  0  0
  7 12  1  0  0  0  0
  8  9  1  0  0  0  0
  9 10  1  0  0  0  0
 10 11  1  0  0  0  0
 10 13  1  0  0  0  0
 11 12  1  0  0  0  0
M  END
> <Index>
9779

> <PropertyFieldDistance>
nan

$$$$
14391814
BBcorina  12272117083D 1   1.00000     0.00000 
CORINA 4.3.0 0026  30.10.2019
 13 14  0  0  0  0  0  0  0  0999 V2000
  -34.1347    9.0907  -39.1414 O   0  0  0  0  0  0  0  0  0  0  0  0
  -34.4141    7.9608  -39.8391 C   0  0  0  0  0  0  0  0  0  0  0  0
  -34.7828    7.8736  -41.2070 C   0  0  0  0  0  0  0  0  0  0  0  0
  -34.9521    6.5478  -41.4154 C   0  0  0  0  0  0  0  0  0  0  0  0
  -34.6877    5.9403  -40.2496 O   0  0  0  0  0  0  0  0  0  0  0  0
  -34.3918    6.7352  -39.3879 N   0  0  0  0  0  0  0  0  0  0  0  0
  -35.3532    5.8831  -42.7070 C   0  0  0  0  0  0  0  0  0  0  0  0
  -36.6587    5.1099  -42.5007 C   0  0  0  0  0  0  0  0  0  0  0  0
  -37.0290    4.3869  -43.7977 C   0  0  0  0  0  0  0  0  0  0  0  0
  -35.9480    3.4664  -44.1723 N   0  0  0  0  0  0  0  0  0  0  0  0
  -34.6958    4.1917  -44.4226 C   0  0  0  0  0  0  0  0  0  0  0  0
  -34.2558    4.9088  -43.1443 C   0  0  0  0  0  0  0  0  0  0  0  0
  -36.3899    2.5211  -45.5270 X   0  0  0  0  0  0  0  0  0  0  0  0
  1  2  1  0  0  0  0
  2  3  1  0  0  0  0
  2  6  2  0  0  0  0
  3  4  2  0  0  0  0
  4  5  1  0  0  0  0
  4  7  1  0  0  0  0
  5  6  1  0  0  0  0
  7  8  1  0  0  0  0
  7 12  1  0  0  0  0
  8  9  1  0  0  0  0
  9 10  1  0  0  0  0
 10 11  1  0  0  0  0
 10 13  1  0  0  0  0
 11 12  1  0  0  0  0
M  END
> <Index>
9784

> <PropertyFieldDistance>
nan

$$$$
16726478
BBcorina  12272117083D 1   1.00000     0.00000 
CORINA 4.3.0 0026  30.10.2019
 15 16  0  0  0  0  0  0  0  0999 V2000
  -36.3496    2.3568  -44.9462 C   0  0  0  0  0  0  0  0  0  0  0  0
  -36.0375    3.6630  -44.3509 N   0  0  0  0  0  0  0  0  0  0  0  0
  -36.9514    3.9682  -43.2428 C   0  0  0  0  0  0  0  0  0  0  0  0
  -36.6926    5.3914  -42.7435 C   0  0  0  0  0  0  0  0  0  0  0  0
  -35.2387    5.5070  -42.2771 C   0  0  0  0  0  0  0  0  0  0  0  0
  -34.3073    5.1368  -43.4348 C   0  0  0  0  0  0  0  0  0  0  0  0
  -34.6363    3.7214  -43.9150 C   0  0  0  0  0  0  0  0  0  0  0  0
  -34.9687    6.8829  -41.8524 N   0  0  0  0  0  0  0  0  0  0  0  0
  -34.5380    7.2630  -40.5012 C   0  0  0  0  0  0  0  0  0  0  0  0
  -34.8009    8.7817  -40.3976 C   0  0  0  0  0  0  0  0  0  0  0  0
  -34.7382    9.2153  -41.8805 C   0  0  0  0  0  0  0  0  0  0  0  0
  -35.7240   10.2708  -42.1497 N   0  0  0  0  0  0  0  0  0  0  0  0
  -35.0843    7.9591  -42.6493 C   0  0  0  0  0  0  0  0  0  0  0  0
  -35.4169    7.9278  -43.8152 O   0  0  0  0  0  0  0  0  0  0  0  0
  -35.1853   11.3084  -43.3976 X   0  0  0  0  0  0  0  0  0  0  0  0
  1  2  1  0  0  0  0
  2  3  1  0  0  0  0
  2  7  1  0  0  0  0
  3  4  1  0  0  0  0
  4  5  1  0  0  0  0
  5  6  1  0  0  0  0
  5  8  1  0  0  0  0
  6  7  1  0  0  0  0
  8  9  1  0  0  0  0
  8 13  1  0  0  0  0
  9 10  1  0  0  0  0
 10 11  1  0  0  0  0
 11 12  1  0  0  0  0
 11 13  1  0  0  0  0
 12 15  1  0  0  0  0
 13 14  2  0  0  0  0
M  END
> <Index>
9798

> <PropertyFieldDistance>
nan

$$$$
9744384
BBcorina  12272117083D 1   1.00000     0.00000 
CORINA 4.3.0 0026  30.10.2019
 12 12  0  0  0  0  0  0  0  0999 V2000
  -33.3042    6.3281  -44.6531 C   0  0  0  0  0  0  0  0  0  0  0  0
  -34.7250    6.2703  -44.2839 N   0  0  0  0  0  0  0  0  0  0  0  0
  -34.9614    5.2439  -43.2600 C   0  0  0  0  0  0  0  0  0  0  0  0
  -36.4342    5.2778  -42.7898 C   0  0  0  0  0  0  0  0  0  0  0  0
  -37.0828    4.2169  -43.7064 C   0  0  0  0  0  0  0  0  0  0  0  0
  -35.9947    3.3068  -44.0829 N   0  0  0  0  0  0  0  0  0  0  0  0
  -36.1936    1.9672  -44.6418 C   0  0  0  0  0  0  0  0  0  0  0  0
  -36.2582    2.0546  -46.1448 C   0  0  0  0  0  0  0  0  0  0  0  0
  -35.4494    1.3308  -46.8784 C   0  0  0  0  0  0  0  0  0  0  0  0
  -34.7923    3.8600  -43.8486 C   0  0  0  0  0  0  0  0  0  0  0  0
  -33.7266    3.3274  -44.0754 O   0  0  0  0  0  0  0  0  0  0  0  0
  -35.2845    7.7989  -43.7601 X   0  0  0  0  0  0  0  0  0  0  0  0
  1  2  1  0  0  0  0
  2  3  1  0  0  0  0
  2 12  1  0  0  0  0
  3  4  1  0  0  0  0
  3 10  1  0  0  0  0
  4  5  1  0  0  0  0
  5  6  1  0  0  0  0
  6  7  1  0  0  0  0
  6 10  1  0  0  0  0
  7  8  1  0  0  0  0
  8  9  2  0  0  0  0
 10 11  2  0  0  0  0
M  END
> <Index>
9806

> <PropertyFieldDistance>
nan

$$$$
10813964
BBcorina  12272117083D 1   1.00000     0.00000 
CORINA 4.3.0 0026  30.10.2019
 14 14  0  0  0  0  0  0  0  0999 V2000
  -38.2217    4.0133  -41.0640 C   0  0  0  0  0  0  0  0  0  0  0  0
  -37.3171    4.3115  -42.2614 C   0  0  0  0  0  0  0  0  0  0  0  0
  -36.4129    5.4056  -41.9137 C   0  0  0  0  0  0  0  0  0  0  0  0
  -35.5252    5.7772  -43.0393 N   0  0  0  0  0  0  0  0  0  0  0  0
  -34.4189    4.8549  -43.1198 C   0  0  0  0  0  0  0  0  0  0  0  0
  -34.6860    3.6967  -44.0978 C   0  0  0  0  0  0  0  0  0  0  0  0
  -36.0654    3.1648  -43.9941 N   0  0  0  0  0  0  0  0  0  0  0  0
  -36.1988    1.9005  -44.7301 C   0  0  0  0  0  0  0  0  0  0  0  0
  -36.0245    2.1613  -46.2276 C   0  0  0  0  0  0  0  0  0  0  0  0
  -34.7115    2.5736  -46.4794 F   0  0  0  0  0  0  0  0  0  0  0  0
  -36.2889    0.9863  -46.9395 F   0  0  0  0  0  0  0  0  0  0  0  0
  -36.9136    3.1623  -46.6332 F   0  0  0  0  0  0  0  0  0  0  0  0
  -36.5471    3.0296  -42.6405 C   0  0  0  0  0  0  0  0  0  0  0  0
  -34.9707    7.3867  -42.8770 X   0  0  0  0  0  0  0  0  0  0  0  0
  1  2  1  0  0  0  0
  2  3  1  0  0  0  0
  2 13  1  0  0  0  0
  3  4  1  0  0  0  0
  4  5  1  0  0  0  0
  4 14  1  0  0  0  0
  5  6  1  0  0  0  0
  6  7  1  0  0  0  0
  7  8  1  0  0  0  0
  7 13  1  0  0  0  0
  8  9  1  0  0  0  0
  9 10  1  0  0  0  0
  9 11  1  0  0  0  0
  9 12  1  0  0  0  0
M  END
> <Index>
9811

> <PropertyFieldDistance>
nan

$$$$
10638552
BBcorina  12272117083D 1   1.00000     0.00000 
CORINA 4.3.0 0026  30.10.2019
 12 13  0  0  0  0  0  0  0  0999 V2000
  -38.7363    5.8859  -43.1263 C   0  0  0  0  0  0  0  0  0  0  0  0
  -37.4486    5.0699  -42.9960 C   0  0  0  0  0  0  0  0  0  0  0  0
  -37.2066    4.3597  -44.2501 C   0  0  0  0  0  0  0  0  0  0  0  0
  -35.9906    3.5164  -44.1898 N   0  0  0  0  0  0  0  0  0  0  0  0
  -34.8165    4.3292  -44.3942 C   0  0  0  0  0  0  0  0  0  0  0  0
  -34.1930    4.8085  -43.0709 C   0  0  0  0  0  0  0  0  0  0  0  0
  -35.2083    5.2398  -42.0813 N   0  0  0  0  0  0  0  0  0  0  0  0
  -36.2864    6.0194  -42.6391 C   0  0  0  0  0  0  0  0  0  0  0  0
  -34.5800    5.9413  -40.9539 C   0  0  0  0  0  0  0  0  0  0  0  0
  -35.4967    6.4525  -39.8407 C   0  0  0  0  0  0  0  0  0  0  0  0
  -34.5925    5.2435  -39.5924 C   0  0  0  0  0  0  0  0  0  0  0  0
  -36.0661    2.2496  -45.3361 X   0  0  0  0  0  0  0  0  0  0  0  0
  1  2  1  0  0  0  0
  2  3  1  0  0  0  0
  2  8  1  0  0  0  0
  3  4  1  0  0  0  0
  4  5  1  0  0  0  0
  4 12  1  0  0  0  0
  5  6  1  0  0  0  0
  6  7  1  0  0  0  0
  7  8  1  0  0  0  0
  7  9  1  0  0  0  0
  9 10  1  0  0  0  0
  9 11  1  0  0  0  0
 10 11  1  0  0  0  0
M  END
> <Index>
9812

> <PropertyFieldDistance>
nan

$$$$
16505758
BBcorina  12272117083D 1   1.00000     0.00000 
CORINA 4.3.0 0026  30.10.2019
 11 12  0  0  0  0  0  0  0  0999 V2000
  -35.2096    0.4029  -45.5542 N   0  0  0  0  0  0  0  0  0  0  0  0
  -35.3571    1.8632  -45.6149 C   0  0  0  0  0  0  0  0  0  0  0  0
  -36.3022    2.3269  -44.5046 C   0  0  0  0  0  0  0  0  0  0  0  0
  -36.4498    3.7872  -44.5654 N   0  0  0  0  0  0  0  0  0  0  0  0
  -37.2108    4.2931  -43.3987 C   0  0  0  0  0  0  0  0  0  0  0  0
  -36.2581    5.3113  -42.6985 C   0  0  0  0  0  0  0  0  0  0  0  0
  -35.1352    4.4336  -42.0624 C   0  0  0  0  0  0  0  0  0  0  0  0
  -34.3915    3.8395  -43.2974 C   0  0  0  0  0  0  0  0  0  0  0  0
  -35.1160    4.4627  -44.5294 C   0  0  0  0  0  0  0  0  0  0  0  0
  -35.5051    5.8714  -43.9588 C   0  0  0  0  0  0  0  0  0  0  0  0
  -34.1588   -0.1584  -46.7809 X   0  0  0  0  0  0  0  0  0  0  0  0
  1  2  1  0  0  0  0
  1 11  1  0  0  0  0
  2  3  1  0  0  0  0
  3  4  1  0  0  0  0
  4  5  1  0  0  0  0
  4  9  1  0  0  0  0
  5  6  1  0  0  0  0
  6  7  1  0  0  0  0
  6 10  1  0  0  0  0
  7  8  1  0  0  0  0
  8  9  1  0  0  0  0
  9 10  1  0  0  0  0
M  END
> <Index>
9814

> <PropertyFieldDistance>
nan

$$$$
17310288
BBcorina  12272117083D 1   1.00000     0.00000 
CORINA 4.3.0 0026  30.10.2019
 10 10  0  0  0  0  0  0  0  0999 V2000
  -31.5952    6.5523  -42.6255 C   0  0  0  0  0  0  0  0  0  0  0  0
  -32.6866    6.0089  -43.4450 N   0  0  0  0  0  0  0  0  0  0  0  0
  -33.9380    5.9434  -42.6786 C   0  0  0  0  0  0  0  0  0  0  0  0
  -35.0487    5.3737  -43.5634 C   0  0  0  0  0  0  0  0  0  0  0  0
  -36.3861    5.2931  -42.7813 C   0  0  0  0  0  0  0  0  0  0  0  0
  -37.1153    4.1469  -43.5256 C   0  0  0  0  0  0  0  0  0  0  0  0
  -36.0496    3.1808  -43.8675 N   0  0  0  0  0  0  0  0  0  0  0  0
  -36.3312    2.5176  -45.1478 C   0  0  0  0  0  0  0  0  0  0  0  0
  -34.7628    3.8988  -43.9162 C   0  0  0  0  0  0  0  0  0  0  0  0
  -32.2733    4.4742  -44.0760 X   0  0  0  0  0  0  0  0  0  0  0  0
  1  2  1  0  0  0  0
  2  3  1  0  0  0  0
  2 10  1  0  0  0  0
  3  4  1  0  0  0  0
  4  5  1  0  0  0  0
  4  9  1  0  0  0  0
  5  6  1  0  0  0  0
  6  7  1  0  0  0  0
  7  8  1  0  0  0  0
  7  9  1  0  0  0  0
M  END
> <Index>
9889

> <PropertyFieldDistance>
nan

$$$$
10122288
BBcorina  12272117083D 1   1.00000     0.00000 
CORINA 4.3.0 0026  30.10.2019
  9  9  0  0  0  0  0  0  0  0999 V2000
  -34.9702    0.9831  -42.0119 C   0  0  0  0  0  0  0  0  0  0  0  0
  -34.9618    2.4472  -42.1312 N   0  0  0  0  0  0  0  0  0  0  0  0
  -35.7042    2.8827  -43.3216 C   0  0  0  0  0  0  0  0  0  0  0  0
  -35.7742    4.4126  -43.3503 C   0  0  0  0  0  0  0  0  0  0  0  0
  -36.4816    4.8566  -44.6343 C   0  0  0  0  0  0  0  0  0  0  0  0
  -35.7343    4.2864  -45.8427 C   0  0  0  0  0  0  0  0  0  0  0  0
  -35.6788    2.8623  -45.7382 O   0  0  0  0  0  0  0  0  0  0  0  0
  -34.9872    2.3887  -44.5808 C   0  0  0  0  0  0  0  0  0  0  0  0
  -35.5851    3.1808  -40.7178 X   0  0  0  0  0  0  0  0  0  0  0  0
  1  2  1  0  0  0  0
  2  3  1  0  0  0  0
  2  9  1  0  0  0  0
  3  4  1  0  0  0  0
  3  8  1  0  0  0  0
  4  5  1  0  0  0  0
  5  6  1  0  0  0  0
  6  7  1  0  0  0  0
  7  8  1  0  0  0  0
M  END
> <Index>
9890

> <PropertyFieldDistance>
nan

$$$$
8991052
BBcorina  12272117083D 1   1.00000     0.00000 
CORINA 4.3.0 0026  30.10.2019
 12 12  0  0  0  0  0  0  0  0999 V2000
  -36.1938    0.7610  -46.7183 C   0  0  0  0  0  0  0  0  0  0  0  0
  -35.6968    2.0361  -46.0342 C   0  0  0  0  0  0  0  0  0  0  0  0
  -36.5387    2.3063  -44.7856 C   0  0  0  0  0  0  0  0  0  0  0  0
  -36.1415    3.5917  -44.1959 N   0  0  0  0  0  0  0  0  0  0  0  0
  -37.0335    3.9793  -43.1920 C   0  0  0  0  0  0  0  0  0  0  0  0
  -36.7680    5.4244  -42.7164 C   0  0  0  0  0  0  0  0  0  0  0  0
  -35.5700    5.4283  -41.8013 C   0  0  0  0  0  0  0  0  0  0  0  0
  -34.2531    5.7148  -42.5500 C   0  0  0  0  0  0  0  0  0  0  0  0
  -34.1842    4.9752  -43.8970 C   0  0  0  0  0  0  0  0  0  0  0  0
  -34.7227    3.5707  -43.7879 C   0  0  0  0  0  0  0  0  0  0  0  0
  -35.8190    3.1687  -46.9616 N   0  0  0  0  0  0  0  0  0  0  0  0
  -37.4454    3.3995  -47.4364 X   0  0  0  0  0  0  0  0  0  0  0  0
  1  2  1  0  0  0  0
  2  3  1  0  0  0  0
  2 11  1  0  0  0  0
  3  4  1  0  0  0  0
  4  5  1  0  0  0  0
  4 10  1  0  0  0  0
  5  6  1  0  0  0  0
  6  7  1  0  0  0  0
  7  8  1  0  0  0  0
  8  9  1  0  0  0  0
  9 10  1  0  0  0  0
 11 12  1  0  0  0  0
M  END
> <Index>
9932

> <PropertyFieldDistance>
nan

$$$$
6547504
BBcorina  12272117083D 1   1.00000     0.00000 
CORINA 4.3.0 0026  30.10.2019
 15 15  0  0  0  0  0  0  0  0999 V2000
  -36.6552    2.9861  -46.9109 F   0  0  0  0  0  0  0  0  0  0  0  0
  -36.9047    2.0356  -45.9152 C   0  0  0  0  0  0  0  0  0  0  0  0
  -36.8773    0.7543  -46.4762 F   0  0  0  0  0  0  0  0  0  0  0  0
  -38.1632    2.2708  -45.3509 F   0  0  0  0  0  0  0  0  0  0  0  0
  -35.8315    2.1402  -44.8297 C   0  0  0  0  0  0  0  0  0  0  0  0
  -35.7624    3.5238  -44.3412 N   0  0  0  0  0  0  0  0  0  0  0  0
  -36.8800    3.8185  -43.4353 C   0  0  0  0  0  0  0  0  0  0  0  0
  -36.8585    5.3026  -43.0626 C   0  0  0  0  0  0  0  0  0  0  0  0
  -35.5264    5.6343  -42.3845 C   0  0  0  0  0  0  0  0  0  0  0  0
  -35.4747    7.1293  -42.0626 C   0  0  0  0  0  0  0  0  0  0  0  0
  -34.1998    7.4376  -41.2750 C   0  0  0  0  0  0  0  0  0  0  0  0
  -34.1503    8.8729  -40.9660 N   0  0  0  0  0  0  0  0  0  0  0  0
  -34.3775    5.2731  -43.3300 C   0  0  0  0  0  0  0  0  0  0  0  0
  -34.4709    3.7899  -43.6951 C   0  0  0  0  0  0  0  0  0  0  0  0
  -32.7377    9.2615  -40.0841 X   0  0  0  0  0  0  0  0  0  0  0  0
  1  2  1  0  0  0  0
  2  3  1  0  0  0  0
  2  4  1  0  0  0  0
  2  5  1  0  0  0  0
  5  6  1  0  0  0  0
  6  7  1  0  0  0  0
  6 14  1  0  0  0  0
  7  8  1  0  0  0  0
  8  9  1  0  0  0  0
  9 10  1  0  0  0  0
  9 13  1  0  0  0  0
 10 11  1  0  0  0  0
 11 12  1  0  0  0  0
 12 15  1  0  0  0  0
 13 14  1  0  0  0  0
M  END
> <Index>
9933

> <PropertyFieldDistance>
nan

$$$$
9329890
BBcorina  12272117083D 1   1.00000     0.00000 
CORINA 4.3.0 0026  30.10.2019
 16 16  0  0  0  0  0  0  0  0999 V2000
  -36.4663    4.0666  -41.3931 C   0  0  0  0  0  0  0  0  0  0  0  0
  -36.6603    5.1074  -42.4976 C   0  0  0  0  0  0  0  0  0  0  0  0
  -37.1076    4.4090  -43.7856 C   0  0  0  0  0  0  0  0  0  0  0  0
  -36.0193    3.5407  -44.2551 N   0  0  0  0  0  0  0  0  0  0  0  0
  -34.6820    4.1209  -44.4388 C   0  0  0  0  0  0  0  0  0  0  0  0
  -34.2632    4.8239  -43.1488 C   0  0  0  0  0  0  0  0  0  0  0  0
  -35.3388    5.8368  -42.7501 C   0  0  0  0  0  0  0  0  0  0  0  0
  -34.9237    6.5353  -41.5262 N   0  0  0  0  0  0  0  0  0  0  0  0
  -36.2422    2.2358  -44.5073 C   0  0  0  0  0  0  0  0  0  0  0  0
  -37.3516    1.7667  -44.3467 O   0  0  0  0  0  0  0  0  0  0  0  0
  -35.2357    1.4517  -44.9371 O   0  0  0  0  0  0  0  0  0  0  0  0
  -35.5483    0.0562  -45.1886 C   0  0  0  0  0  0  0  0  0  0  0  0
  -36.6312   -0.0378  -46.2653 C   0  0  0  0  0  0  0  0  0  0  0  0
  -34.2895   -0.6704  -45.6665 C   0  0  0  0  0  0  0  0  0  0  0  0
  -36.0536   -0.5937  -43.8989 C   0  0  0  0  0  0  0  0  0  0  0  0
  -34.2038    5.4516  -40.4165 X   0  0  0  0  0  0  0  0  0  0  0  0
  1  2  1  0  0  0  0
  2  3  1  0  0  0  0
  2  7  1  0  0  0  0
  3  4  1  0  0  0  0
  4  5  1  0  0  0  0
  4  9  1  0  0  0  0
  5  6  1  0  0  0  0
  6  7  1  0  0  0  0
  7  8  1  0  0  0  0
  8 16  1  0  0  0  0
  9 10  2  0  0  0  0
  9 11  1  0  0  0  0
 11 12  1  0  0  0  0
 12 13  1  0  0  0  0
 12 14  1  0  0  0  0
 12 15  1  0  0  0  0
M  END
> <Index>
9944

> <PropertyFieldDistance>
nan

$$$$
14938336
BBcorina  12272117083D 1   1.00000     0.00000 
CORINA 4.3.0 0026  30.10.2019
 15 16  0  0  0  0  0  0  0  0999 V2000
  -39.2895    0.6379  -46.4780 C   0  0  0  0  0  0  0  0  0  0  0  0
  -37.9032    0.9211  -45.9593 C   0  0  0  0  0  0  0  0  0  0  0  0
  -36.9225   -0.0499  -46.0443 C   0  0  0  0  0  0  0  0  0  0  0  0
  -35.6488    0.2058  -45.5695 C   0  0  0  0  0  0  0  0  0  0  0  0
  -35.3526    1.4326  -45.0093 C   0  0  0  0  0  0  0  0  0  0  0  0
  -36.3357    2.4105  -44.9223 C   0  0  0  0  0  0  0  0  0  0  0  0
  -37.6151    2.1484  -45.3948 C   0  0  0  0  0  0  0  0  0  0  0  0
  -36.0395    3.6523  -44.3558 N   0  0  0  0  0  0  0  0  0  0  0  0
  -36.9539    3.9569  -43.2478 C   0  0  0  0  0  0  0  0  0  0  0  0
  -36.6957    5.3801  -42.7481 C   0  0  0  0  0  0  0  0  0  0  0  0
  -35.2420    5.4969  -42.2815 C   0  0  0  0  0  0  0  0  0  0  0  0
  -34.3112    5.1269  -43.4396 C   0  0  0  0  0  0  0  0  0  0  0  0
  -34.6386    3.7111  -43.9194 C   0  0  0  0  0  0  0  0  0  0  0  0
  -32.9158    5.1799  -42.9835 N   0  0  0  0  0  0  0  0  0  0  0  0
  -32.6232    4.0117  -41.7695 X   0  0  0  0  0  0  0  0  0  0  0  0
  1  2  1  0  0  0  0
  2  3  2  0  0  0  0
  2  7  1  0  0  0  0
  3  4  1  0  0  0  0
  4  5  2  0  0  0  0
  5  6  1  0  0  0  0
  6  7  2  0  0  0  0
  6  8  1  0  0  0  0
  8  9  1  0  0  0  0
  8 13  1  0  0  0  0
  9 10  1  0  0  0  0
 10 11  1  0  0  0  0
 11 12  1  0  0  0  0
 12 13  1  0  0  0  0
 12 14  1  0  0  0  0
 14 15  1  0  0  0  0
M  END
> <Index>
9948

> <PropertyFieldDistance>
nan

$$$$
14059436
BBcorina  12272117083D 1   1.00000     0.00000 
CORINA 4.3.0 0026  30.10.2019
 13 13  0  0  0  0  0  0  0  0999 V2000
  -37.4863    6.1808  -41.9276 C   0  0  0  0  0  0  0  0  0  0  0  0
  -36.4911    5.1193  -42.4005 C   0  0  0  0  0  0  0  0  0  0  0  0
  -37.0773    4.3644  -43.5965 C   0  0  0  0  0  0  0  0  0  0  0  0
  -36.0861    3.3991  -44.0937 N   0  0  0  0  0  0  0  0  0  0  0  0
  -36.6307    2.6123  -45.2083 C   0  0  0  0  0  0  0  0  0  0  0  0
  -35.6729    1.4659  -45.5391 C   0  0  0  0  0  0  0  0  0  0  0  0
  -35.6112    0.5627  -44.4335 O   0  0  0  0  0  0  0  0  0  0  0  0
  -36.1764    0.7222  -46.7778 C   0  0  0  0  0  0  0  0  0  0  0  0
  -35.2568   -0.3786  -47.0955 N   0  0  0  0  0  0  0  0  0  0  0  0
  -34.8456    4.0825  -44.4878 C   0  0  0  0  0  0  0  0  0  0  0  0
  -34.2818    4.8402  -43.2829 C   0  0  0  0  0  0  0  0  0  0  0  0
  -35.2700    5.7513  -42.7941 O   0  0  0  0  0  0  0  0  0  0  0  0
  -35.7837   -1.2380  -48.4767 X   0  0  0  0  0  0  0  0  0  0  0  0
  1  2  1  0  0  0  0
  2  3  1  0  0  0  0
  2 12  1  0  0  0  0
  3  4  1  0  0  0  0
  4  5  1  0  0  0  0
  4 10  1  0  0  0  0
  5  6  1  0  0  0  0
  6  7  1  0  0  0  0
  6  8  1  0  0  0  0
  8  9  1  0  0  0  0
  9 13  1  0  0  0  0
 10 11  1  0  0  0  0
 11 12  1  0  0  0  0
M  END
> <Index>
9961

> <PropertyFieldDistance>
nan

$$$$
12432392
BBcorina  12272117083D 1   1.00000     0.00000 
CORINA 4.3.0 0026  30.10.2019
 10 10  0  0  0  0  0  0  0  0999 V2000
  -31.8798    4.7860  -43.9197 C   0  0  0  0  0  0  0  0  0  0  0  0
  -32.8471    4.9088  -42.7406 C   0  0  0  0  0  0  0  0  0  0  0  0
  -34.2769    5.0496  -43.2665 C   0  0  0  0  0  0  0  0  0  0  0  0
  -34.3723    6.2190  -44.0823 O   0  0  0  0  0  0  0  0  0  0  0  0
  -35.2461    5.1676  -42.0870 C   0  0  0  0  0  0  0  0  0  0  0  0
  -36.6793    5.2476  -42.6202 C   0  0  0  0  0  0  0  0  0  0  0  0
  -36.9724    4.0086  -43.4695 C   0  0  0  0  0  0  0  0  0  0  0  0
  -36.0191    3.9414  -44.5845 N   0  0  0  0  0  0  0  0  0  0  0  0
  -34.6396    3.8164  -44.0970 C   0  0  0  0  0  0  0  0  0  0  0  0
  -36.4111    2.6621  -45.6494 X   0  0  0  0  0  0  0  0  0  0  0  0
  1  2  1  0  0  0  0
  2  3  1  0  0  0  0
  3  4  1  0  0  0  0
  3  5  1  0  0  0  0
  3  9  1  0  0  0  0
  5  6  1  0  0  0  0
  6  7  1  0  0  0  0
  7  8  1  0  0  0  0
  8  9  1  0  0  0  0
  8 10  1  0  0  0  0
M  END
> <Index>
10013

> <PropertyFieldDistance>
nan

$$$$
10427774
BBcorina  12272117083D 1   1.00000     0.00000 
CORINA 4.3.0 0026  30.10.2019
 11 12  0  0  0  0  0  0  0  0999 V2000
  -35.9639    3.4665  -44.1601 N   0  0  0  0  0  0  0  0  0  0  0  0
  -36.9727    4.4890  -43.8402 C   0  0  0  0  0  0  0  0  0  0  0  0
  -36.6931    5.0270  -42.4369 C   0  0  0  0  0  0  0  0  0  0  0  0
  -35.2440    5.4279  -42.3185 C   0  0  0  0  0  0  0  0  0  0  0  0
  -34.8905    6.2172  -41.3155 N   0  0  0  0  0  0  0  0  0  0  0  0
  -33.6458    6.6056  -41.1342 C   0  0  0  0  0  0  0  0  0  0  0  0
  -32.6468    6.1978  -41.9976 C   0  0  0  0  0  0  0  0  0  0  0  0
  -32.9756    5.3737  -43.0613 C   0  0  0  0  0  0  0  0  0  0  0  0
  -34.3006    4.9860  -43.2207 C   0  0  0  0  0  0  0  0  0  0  0  0
  -34.6571    4.0951  -44.3798 C   0  0  0  0  0  0  0  0  0  0  0  0
  -36.4364    2.5437  -45.5200 X   0  0  0  0  0  0  0  0  0  0  0  0
  1  2  1  0  0  0  0
  1 10  1  0  0  0  0
  1 11  1  0  0  0  0
  2  3  1  0  0  0  0
  3  4  1  0  0  0  0
  4  5  2  0  0  0  0
  4  9  1  0  0  0  0
  5  6  1  0  0  0  0
  6  7  2  0  0  0  0
  7  8  1  0  0  0  0
  8  9  2  0  0  0  0
  9 10  1  0  0  0  0
M  END
> <Index>
10029

> <PropertyFieldDistance>
nan

$$$$
16784304
BBcorina  12272117083D 1   1.00000     0.00000 
CORINA 4.3.0 0026  30.10.2019
 11 12  0  0  0  0  0  0  0  0999 V2000
  -36.9909    7.5891  -39.9616 C   0  0  0  0  0  0  0  0  0  0  0  0
  -36.5869    6.6694  -41.0279 N   0  0  0  0  0  0  0  0  0  0  0  0
  -37.3918    5.7892  -41.6660 C   0  0  0  0  0  0  0  0  0  0  0  0
  -36.6446    5.1401  -42.5748 C   0  0  0  0  0  0  0  0  0  0  0  0
  -37.0554    4.0661  -43.5513 C   0  0  0  0  0  0  0  0  0  0  0  0
  -36.0039    3.9560  -44.5773 N   0  0  0  0  0  0  0  0  0  0  0  0
  -34.6744    3.7878  -43.9765 C   0  0  0  0  0  0  0  0  0  0  0  0
  -34.2090    5.1136  -43.3578 C   0  0  0  0  0  0  0  0  0  0  0  0
  -35.3285    5.6297  -42.4853 C   0  0  0  0  0  0  0  0  0  0  0  0
  -35.2949    6.5426  -41.5626 N   0  0  0  0  0  0  0  0  0  0  0  0
  -36.0338    5.3014  -45.6323 X   0  0  0  0  0  0  0  0  0  0  0  0
  1  2  1  0  0  0  0
  2  3  1  0  0  0  0
  2 10  1  0  0  0  0
  3  4  2  0  0  0  0
  4  5  1  0  0  0  0
  4  9  1  0  0  0  0
  5  6  1  0  0  0  0
  6  7  1  0  0  0  0
  6 11  1  0  0  0  0
  7  8  1  0  0  0  0
  8  9  1  0  0  0  0
  9 10  2  0  0  0  0
M  END
> <Index>
10035

> <PropertyFieldDistance>
nan

$$$$
12206130
BBcorina  12272117083D 1   1.00000     0.00000 
CORINA 4.3.0 0026  30.10.2019
 11 12  0  0  0  0  0  0  0  0999 V2000
  -35.9477    3.4664  -44.1723 N   0  0  0  0  0  0  0  0  0  0  0  0
  -37.0298    4.3870  -43.7976 C   0  0  0  0  0  0  0  0  0  0  0  0
  -36.6586    5.1099  -42.5008 C   0  0  0  0  0  0  0  0  0  0  0  0
  -35.3533    5.8832  -42.7080 C   0  0  0  0  0  0  0  0  0  0  0  0
  -34.2557    4.9087  -43.1443 C   0  0  0  0  0  0  0  0  0  0  0  0
  -34.6956    4.1916  -44.4226 C   0  0  0  0  0  0  0  0  0  0  0  0
  -34.9628    6.5331  -41.4498 N   0  0  0  0  0  0  0  0  0  0  0  0
  -33.7068    7.2887  -41.6129 C   0  0  0  0  0  0  0  0  0  0  0  0
  -34.3315    8.4028  -40.7614 C   0  0  0  0  0  0  0  0  0  0  0  0
  -35.6537    7.8257  -41.2861 C   0  0  0  0  0  0  0  0  0  0  0  0
  -36.3896    2.5210  -45.5271 X   0  0  0  0  0  0  0  0  0  0  0  0
  1  2  1  0  0  0  0
  1  6  1  0  0  0  0
  1 11  1  0  0  0  0
  2  3  1  0  0  0  0
  3  4  1  0  0  0  0
  4  5  1  0  0  0  0
  4  7  1  0  0  0  0
  5  6  1  0  0  0  0
  7  8  1  0  0  0  0
  7 10  1  0  0  0  0
  8  9  1  0  0  0  0
  9 10  1  0  0  0  0
M  END
> <Index>
10038

> <PropertyFieldDistance>
nan

$$$$
14316652
BBcorina  12272117083D 1   1.00000     0.00000 
CORINA 4.3.0 0026  30.10.2019
 16 16  0  0  0  0  0  0  0  0999 V2000
  -36.7135   -0.5157  -43.7189 C   0  0  0  0  0  0  0  0  0  0  0  0
  -37.6389    0.3038  -44.6207 C   0  0  0  0  0  0  0  0  0  0  0  0
  -39.0916   -0.1015  -44.3632 C   0  0  0  0  0  0  0  0  0  0  0  0
  -37.2878    0.0398  -46.0862 C   0  0  0  0  0  0  0  0  0  0  0  0
  -37.4717    1.7165  -44.3297 O   0  0  0  0  0  0  0  0  0  0  0  0
  -36.2420    2.2355  -44.5063 C   0  0  0  0  0  0  0  0  0  0  0  0
  -35.3334    1.5273  -44.8929 O   0  0  0  0  0  0  0  0  0  0  0  0
  -36.0189    3.5405  -44.2543 N   0  0  0  0  0  0  0  0  0  0  0  0
  -37.1073    4.4093  -43.7859 C   0  0  0  0  0  0  0  0  0  0  0  0
  -36.6609    5.1079  -42.4977 C   0  0  0  0  0  0  0  0  0  0  0  0
  -35.3382    5.8372  -42.7488 C   0  0  0  0  0  0  0  0  0  0  0  0
  -34.9233    6.5356  -41.5249 N   0  0  0  0  0  0  0  0  0  0  0  0
  -34.2632    4.8232  -43.1467 C   0  0  0  0  0  0  0  0  0  0  0  0
  -33.0475    5.4860  -43.3469 F   0  0  0  0  0  0  0  0  0  0  0  0
  -34.6824    4.1214  -44.4422 C   0  0  0  0  0  0  0  0  0  0  0  0
  -35.5555    8.1239  -41.4814 X   0  0  0  0  0  0  0  0  0  0  0  0
  1  2  1  0  0  0  0
  2  3  1  0  0  0  0
  2  4  1  0  0  0  0
  2  5  1  0  0  0  0
  5  6  1  0  0  0  0
  6  7  2  0  0  0  0
  6  8  1  0  0  0  0
  8  9  1  0  0  0  0
  8 15  1  0  0  0  0
  9 10  1  0  0  0  0
 10 11  1  0  0  0  0
 11 12  1  0  0  0  0
 11 13  1  0  0  0  0
 12 16  1  0  0  0  0
 13 14  1  0  0  0  0
 13 15  1  0  0  0  0
M  END
> <Index>
10041

> <PropertyFieldDistance>
nan

$$$$
15065778
BBcorina  12272117083D 1   1.00000     0.00000 
CORINA 4.3.0 0026  30.10.2019
 11 11  0  0  0  0  0  0  0  0999 V2000
  -34.8338    6.9191  -42.1417 O   0  0  0  0  0  0  0  0  0  0  0  0
  -35.1630    5.5577  -42.4252 C   0  0  0  0  0  0  0  0  0  0  0  0
  -36.6429    5.4576  -42.8054 C   0  0  0  0  0  0  0  0  0  0  0  0
  -36.9749    4.0081  -43.1668 C   0  0  0  0  0  0  0  0  0  0  0  0
  -36.1324    3.5770  -44.2897 N   0  0  0  0  0  0  0  0  0  0  0  0
  -36.5188    2.2380  -44.7539 C   0  0  0  0  0  0  0  0  0  0  0  0
  -35.7986    1.9261  -46.0674 C   0  0  0  0  0  0  0  0  0  0  0  0
  -36.1850    0.5870  -46.5316 N   0  0  0  0  0  0  0  0  0  0  0  0
  -34.7087    3.6195  -43.9322 C   0  0  0  0  0  0  0  0  0  0  0  0
  -34.3091    5.0575  -43.5937 C   0  0  0  0  0  0  0  0  0  0  0  0
  -35.4008    0.1977  -48.0005 X   0  0  0  0  0  0  0  0  0  0  0  0
  1  2  1  0  0  0  0
  2  3  1  0  0  0  0
  2 10  1  0  0  0  0
  3  4  1  0  0  0  0
  4  5  1  0  0  0  0
  5  6  1  0  0  0  0
  5  9  1  0  0  0  0
  6  7  1  0  0  0  0
  7  8  1  0  0  0  0
  8 11  1  0  0  0  0
  9 10  1  0  0  0  0
M  END
> <Index>
10046

> <PropertyFieldDistance>
nan

$$$$
9142002
BBcorina  12272117083D 1   1.00000     0.00000 
CORINA 4.3.0 0026  30.10.2019
 10 11  0  0  0  0  0  0  0  0999 V2000
  -35.9601    3.4701  -44.1635 N   0  0  0  0  0  0  0  0  0  0  0  0
  -36.9611    4.4951  -43.8357 C   0  0  0  0  0  0  0  0  0  0  0  0
  -36.7021    5.0354  -42.4258 C   0  0  0  0  0  0  0  0  0  0  0  0
  -35.2336    5.4237  -42.3297 C   0  0  0  0  0  0  0  0  0  0  0  0
  -34.7133    6.2041  -41.3972 N   0  0  0  0  0  0  0  0  0  0  0  0
  -33.4491    6.4438  -41.4515 C   0  0  0  0  0  0  0  0  0  0  0  0
  -32.7537    5.6404  -42.7908 S   0  0  0  0  0  0  0  0  0  0  0  0
  -34.3252    4.9842  -43.2234 C   0  0  0  0  0  0  0  0  0  0  0  0
  -34.6387    4.0788  -44.3893 C   0  0  0  0  0  0  0  0  0  0  0  0
  -36.4490    2.5469  -45.5173 X   0  0  0  0  0  0  0  0  0  0  0  0
  1  2  1  0  0  0  0
  1  9  1  0  0  0  0
  1 10  1  0  0  0  0
  2  3  1  0  0  0  0
  3  4  1  0  0  0  0
  4  5  1  0  0  0  0
  4  8  2  0  0  0  0
  5  6  2  0  0  0  0
  6  7  1  0  0  0  0
  7  8  1  0  0  0  0
  8  9  1  0  0  0  0
M  END
> <Index>
10070

> <PropertyFieldDistance>
nan

$$$$
9818728
BBcorina  12272117083D 1   1.00000     0.00000 
CORINA 4.3.0 0026  30.10.2019
 13 14  0  0  0  0  0  0  0  0999 V2000
  -36.0194    3.9412  -44.5846 N   0  0  0  0  0  0  0  0  0  0  0  0
  -36.9723    4.0084  -43.4693 C   0  0  0  0  0  0  0  0  0  0  0  0
  -36.6796    5.2477  -42.6204 C   0  0  0  0  0  0  0  0  0  0  0  0
  -35.2463    5.1683  -42.0875 C   0  0  0  0  0  0  0  0  0  0  0  0
  -34.2763    5.0495  -43.2662 C   0  0  0  0  0  0  0  0  0  0  0  0
  -34.6397    3.8168  -44.0972 C   0  0  0  0  0  0  0  0  0  0  0  0
  -34.9320    6.4144  -41.3004 C   0  0  0  0  0  0  0  0  0  0  0  0
  -35.5071    7.5609  -41.4546 N   0  0  0  0  0  0  0  0  0  0  0  0
  -34.9361    8.4557  -40.5376 N   0  0  0  0  0  0  0  0  0  0  0  0
  -34.0033    7.7638  -39.8488 C   0  0  0  0  0  0  0  0  0  0  0  0
  -33.2919    8.1974  -38.9616 O   0  0  0  0  0  0  0  0  0  0  0  0
  -34.0072    6.5077  -40.3245 O   0  0  0  0  0  0  0  0  0  0  0  0
  -36.4111    2.6614  -45.6490 X   0  0  0  0  0  0  0  0  0  0  0  0
  1  2  1  0  0  0  0
  1  6  1  0  0  0  0
  1 13  1  0  0  0  0
  2  3  1  0  0  0  0
  3  4  1  0  0  0  0
  4  5  1  0  0  0  0
  4  7  1  0  0  0  0
  5  6  1  0  0  0  0
  7  8  2  0  0  0  0
  7 12  1  0  0  0  0
  8  9  1  0  0  0  0
  9 10  1  0  0  0  0
 10 11  2  0  0  0  0
 10 12  1  0  0  0  0
M  END
> <Index>
10097

> <PropertyFieldDistance>
nan

$$$$
7534972
BBcorina  12272117083D 1   1.00000     0.00000 
CORINA 4.3.0 0026  30.10.2019
 16 17  0  0  0  0  0  0  0  0999 V2000
  -35.5797    1.5889  -45.6211 C   0  0  0  0  0  0  0  0  0  0  0  0
  -36.6696    2.5210  -45.0882 C   0  0  0  0  0  0  0  0  0  0  0  0
  -37.8103    1.6880  -44.5002 C   0  0  0  0  0  0  0  0  0  0  0  0
  -36.1061    3.3863  -44.0434 N   0  0  0  0  0  0  0  0  0  0  0  0
  -37.0925    4.3755  -43.5908 C   0  0  0  0  0  0  0  0  0  0  0  0
  -36.5233    5.1607  -42.4070 C   0  0  0  0  0  0  0  0  0  0  0  0
  -35.2318    5.8608  -42.8387 C   0  0  0  0  0  0  0  0  0  0  0  0
  -34.2394    4.8133  -43.3509 C   0  0  0  0  0  0  0  0  0  0  0  0
  -34.8749    4.0382  -44.5075 C   0  0  0  0  0  0  0  0  0  0  0  0
  -34.6497    6.5686  -41.6907 N   0  0  0  0  0  0  0  0  0  0  0  0
  -33.4060    7.2536  -42.0698 C   0  0  0  0  0  0  0  0  0  0  0  0
  -32.8748    8.0419  -40.8702 C   0  0  0  0  0  0  0  0  0  0  0  0
  -32.6452    7.1232  -39.7465 N   0  0  0  0  0  0  0  0  0  0  0  0
  -33.8890    6.4383  -39.3674 C   0  0  0  0  0  0  0  0  0  0  0  0
  -34.4200    5.6499  -40.5668 C   0  0  0  0  0  0  0  0  0  0  0  0
  -31.9676    7.9472  -38.4100 X   0  0  0  0  0  0  0  0  0  0  0  0
  1  2  1  0  0  0  0
  2  3  1  0  0  0  0
  2  4  1  0  0  0  0
  4  5  1  0  0  0  0
  4  9  1  0  0  0  0
  5  6  1  0  0  0  0
  6  7  1  0  0  0  0
  7  8  1  0  0  0  0
  7 10  1  0  0  0  0
  8  9  1  0  0  0  0
 10 11  1  0  0  0  0
 10 15  1  0  0  0  0
 11 12  1  0  0  0  0
 12 13  1  0  0  0  0
 13 14  1  0  0  0  0
 13 16  1  0  0  0  0
 14 15  1  0  0  0  0
M  END
> <Index>
10212

> <PropertyFieldDistance>
nan

$$$$
7914640
BBcorina  12272117083D 1   1.00000     0.00000 
CORINA 4.3.0 0026  30.10.2019
 16 17  0  0  0  0  0  0  0  0999 V2000
  -35.7360    2.0955  -46.2012 C   0  0  0  0  0  0  0  0  0  0  0  0
  -36.6028    2.3540  -44.9673 C   0  0  0  0  0  0  0  0  0  0  0  0
  -36.4760    1.1762  -43.9990 C   0  0  0  0  0  0  0  0  0  0  0  0
  -36.1539    3.5847  -44.3026 N   0  0  0  0  0  0  0  0  0  0  0  0
  -37.0380    3.9299  -43.1806 C   0  0  0  0  0  0  0  0  0  0  0  0
  -36.5843    5.2565  -42.5665 C   0  0  0  0  0  0  0  0  0  0  0  0
  -35.1906    5.1338  -42.1167 N   0  0  0  0  0  0  0  0  0  0  0  0
  -34.3066    4.7887  -43.2388 C   0  0  0  0  0  0  0  0  0  0  0  0
  -34.7603    3.4622  -43.8529 C   0  0  0  0  0  0  0  0  0  0  0  0
  -34.7418    6.3646  -41.4521 C   0  0  0  0  0  0  0  0  0  0  0  0
  -33.3320    6.1583  -40.8912 C   0  0  0  0  0  0  0  0  0  0  0  0
  -32.8460    7.4620  -40.2539 C   0  0  0  0  0  0  0  0  0  0  0  0
  -32.8395    8.5289  -41.2628 N   0  0  0  0  0  0  0  0  0  0  0  0
  -34.1907    8.7773  -41.7816 C   0  0  0  0  0  0  0  0  0  0  0  0
  -34.7183    7.5133  -42.4643 C   0  0  0  0  0  0  0  0  0  0  0  0
  -32.1513    9.9625  -40.6343 X   0  0  0  0  0  0  0  0  0  0  0  0
  1  2  1  0  0  0  0
  2  3  1  0  0  0  0
  2  4  1  0  0  0  0
  4  5  1  0  0  0  0
  4  9  1  0  0  0  0
  5  6  1  0  0  0  0
  6  7  1  0  0  0  0
  7  8  1  0  0  0  0
  7 10  1  0  0  0  0
  8  9  1  0  0  0  0
 10 11  1  0  0  0  0
 10 15  1  0  0  0  0
 11 12  1  0  0  0  0
 12 13  1  0  0  0  0
 13 14  1  0  0  0  0
 13 16  1  0  0  0  0
 14 15  1  0  0  0  0
M  END
> <Index>
10213

> <PropertyFieldDistance>
nan

$$$$
10435382
BBcorina  12272117083D 1   1.00000     0.00000 
CORINA 4.3.0 0026  30.10.2019
 14 15  0  0  0  0  0  0  0  0999 V2000
  -36.3895    2.4969  -47.0116 F   0  0  0  0  0  0  0  0  0  0  0  0
  -36.5064    1.7183  -45.9136 C   0  0  0  0  0  0  0  0  0  0  0  0
  -36.7969    0.3733  -46.0464 C   0  0  0  0  0  0  0  0  0  0  0  0
  -36.9108   -0.4249  -44.9224 C   0  0  0  0  0  0  0  0  0  0  0  0
  -36.7462    0.1211  -43.6632 C   0  0  0  0  0  0  0  0  0  0  0  0
  -36.4614    1.4660  -43.5226 C   0  0  0  0  0  0  0  0  0  0  0  0
  -36.3403    2.2700  -44.6473 C   0  0  0  0  0  0  0  0  0  0  0  0
  -36.0517    3.6312  -44.5082 N   0  0  0  0  0  0  0  0  0  0  0  0
  -37.0978    4.3159  -43.7266 C   0  0  0  0  0  0  0  0  0  0  0  0
  -36.4031    4.9893  -42.5243 C   0  0  0  0  0  0  0  0  0  0  0  0
  -34.9332    5.1259  -43.0015 C   0  0  0  0  0  0  0  0  0  0  0  0
  -34.7523    3.8308  -43.8320 C   0  0  0  0  0  0  0  0  0  0  0  0
  -34.0096    5.1531  -41.8596 N   0  0  0  0  0  0  0  0  0  0  0  0
  -34.0819    3.6897  -40.9779 X   0  0  0  0  0  0  0  0  0  0  0  0
  1  2  1  0  0  0  0
  2  3  2  0  0  0  0
  2  7  1  0  0  0  0
  3  4  1  0  0  0  0
  4  5  2  0  0  0  0
  5  6  1  0  0  0  0
  6  7  2  0  0  0  0
  7  8  1  0  0  0  0
  8  9  1  0  0  0  0
  8 12  1  0  0  0  0
  9 10  1  0  0  0  0
 10 11  1  0  0  0  0
 11 12  1  0  0  0  0
 11 13  1  0  0  0  0
 13 14  1  0  0  0  0
M  END
> <Index>
10223

> <PropertyFieldDistance>
nan

$$$$
13772432
BBcorina  12272117083D 1   1.00000     0.00000 
CORINA 4.3.0 0026  30.10.2019
 12 13  0  0  0  0  0  0  0  0999 V2000
  -33.6170    7.0066  -41.2853 C   0  0  0  0  0  0  0  0  0  0  0  0
  -34.9675    6.8860  -41.8505 N   0  0  0  0  0  0  0  0  0  0  0  0
  -35.2385    5.5066  -42.2767 C   0  0  0  0  0  0  0  0  0  0  0  0
  -36.6923    5.3915  -42.7433 C   0  0  0  0  0  0  0  0  0  0  0  0
  -36.9515    3.9683  -43.2428 C   0  0  0  0  0  0  0  0  0  0  0  0
  -36.0372    3.6632  -44.3507 N   0  0  0  0  0  0  0  0  0  0  0  0
  -34.6363    3.7209  -43.9147 C   0  0  0  0  0  0  0  0  0  0  0  0
  -34.3081    5.1367  -43.4352 C   0  0  0  0  0  0  0  0  0  0  0  0
  -36.3493    2.3571  -44.9464 C   0  0  0  0  0  0  0  0  0  0  0  0
  -35.5618    1.9419  -46.1907 C   0  0  0  0  0  0  0  0  0  0  0  0
  -35.2843    1.2631  -44.8479 C   0  0  0  0  0  0  0  0  0  0  0  0
  -35.1906    7.9820  -43.1440 X   0  0  0  0  0  0  0  0  0  0  0  0
  1  2  1  0  0  0  0
  2  3  1  0  0  0  0
  2 12  1  0  0  0  0
  3  4  1  0  0  0  0
  3  8  1  0  0  0  0
  4  5  1  0  0  0  0
  5  6  1  0  0  0  0
  6  7  1  0  0  0  0
  6  9  1  0  0  0  0
  7  8  1  0  0  0  0
  9 10  1  0  0  0  0
  9 11  1  0  0  0  0
 10 11  1  0  0  0  0
M  END
> <Index>
10224

> <PropertyFieldDistance>
nan

$$$$
12104374
BBcorina  12272117083D 1   1.00000     0.00000 
CORINA 4.3.0 0026  30.10.2019
 10 10  0  0  0  0  0  0  0  0999 V2000
  -36.7815    1.1496  -47.0488 C   0  0  0  0  0  0  0  0  0  0  0  0
  -36.8490    1.6584  -45.6074 C   0  0  0  0  0  0  0  0  0  0  0  0
  -35.7596    2.7097  -45.3862 C   0  0  0  0  0  0  0  0  0  0  0  0
  -35.8242    3.1982  -44.0024 N   0  0  0  0  0  0  0  0  0  0  0  0
  -37.0460    4.0006  -43.7803 C   0  0  0  0  0  0  0  0  0  0  0  0
  -36.6262    5.0856  -42.7574 C   0  0  0  0  0  0  0  0  0  0  0  0
  -35.1785    5.4042  -43.2150 C   0  0  0  0  0  0  0  0  0  0  0  0
  -34.6508    4.0309  -43.6806 C   0  0  0  0  0  0  0  0  0  0  0  0
  -34.3795    5.9145  -42.0929 N   0  0  0  0  0  0  0  0  0  0  0  0
  -34.3452    7.6241  -42.0925 X   0  0  0  0  0  0  0  0  0  0  0  0
  1  2  1  0  0  0  0
  2  3  1  0  0  0  0
  3  4  1  0  0  0  0
  4  5  1  0  0  0  0
  4  8  1  0  0  0  0
  5  6  1  0  0  0  0
  6  7  1  0  0  0  0
  7  8  1  0  0  0  0
  7  9  1  0  0  0  0
  9 10  1  0  0  0  0
M  END
> <Index>
10225

> <PropertyFieldDistance>
nan

$$$$
14047632
BBcorina  12272117083D 1   1.00000     0.00000 
CORINA 4.3.0 0026  30.10.2019
 14 15  0  0  0  0  0  0  0  0999 V2000
  -37.1944    0.5094  -48.0619 C   0  0  0  0  0  0  0  0  0  0  0  0
  -36.8540    0.7844  -46.6198 C   0  0  0  0  0  0  0  0  0  0  0  0
  -36.7711   -0.2608  -45.7185 C   0  0  0  0  0  0  0  0  0  0  0  0
  -36.4589   -0.0129  -44.3941 C   0  0  0  0  0  0  0  0  0  0  0  0
  -36.2238    1.2796  -43.9688 C   0  0  0  0  0  0  0  0  0  0  0  0
  -36.3109    2.3326  -44.8709 C   0  0  0  0  0  0  0  0  0  0  0  0
  -36.6247    2.0802  -46.2001 C   0  0  0  0  0  0  0  0  0  0  0  0
  -36.0781    3.6417  -44.4432 N   0  0  0  0  0  0  0  0  0  0  0  0
  -37.0883    4.0611  -43.4383 C   0  0  0  0  0  0  0  0  0  0  0  0
  -36.4007    5.2484  -42.7185 C   0  0  0  0  0  0  0  0  0  0  0  0
  -34.9221    4.8022  -42.6509 C   0  0  0  0  0  0  0  0  0  0  0  0
  -34.7671    3.7533  -43.7676 C   0  0  0  0  0  0  0  0  0  0  0  0
  -34.0329    5.9452  -42.8979 N   0  0  0  0  0  0  0  0  0  0  0  0
  -34.4676    6.7601  -44.3370 X   0  0  0  0  0  0  0  0  0  0  0  0
  1  2  1  0  0  0  0
  2  3  2  0  0  0  0
  2  7  1  0  0  0  0
  3  4  1  0  0  0  0
  4  5  2  0  0  0  0
  5  6  1  0  0  0  0
  6  7  2  0  0  0  0
  6  8  1  0  0  0  0
  8  9  1  0  0  0  0
  8 12  1  0  0  0  0
  9 10  1  0  0  0  0
 10 11  1  0  0  0  0
 11 12  1  0  0  0  0
 11 13  1  0  0  0  0
 13 14  1  0  0  0  0
M  END
> <Index>
10226

> <PropertyFieldDistance>
nan

$$$$
18052714
BBcorina  12272117083D 1   1.00000     0.00000 
CORINA 4.3.0 0026  30.10.2019
 12 13  0  0  0  0  0  0  0  0999 V2000
  -34.9750    6.8486  -41.8621 O   0  0  0  0  0  0  0  0  0  0  0  0
  -35.2385    5.5067  -42.2767 C   0  0  0  0  0  0  0  0  0  0  0  0
  -36.6924    5.3914  -42.7433 C   0  0  0  0  0  0  0  0  0  0  0  0
  -36.9513    3.9683  -43.2428 C   0  0  0  0  0  0  0  0  0  0  0  0
  -36.0372    3.6631  -44.3508 N   0  0  0  0  0  0  0  0  0  0  0  0
  -34.6362    3.7211  -43.9147 C   0  0  0  0  0  0  0  0  0  0  0  0
  -34.3080    5.1368  -43.4352 C   0  0  0  0  0  0  0  0  0  0  0  0
  -36.3495    2.3571  -44.9464 C   0  0  0  0  0  0  0  0  0  0  0  0
  -35.5077    2.0271  -46.1922 C   0  0  0  0  0  0  0  0  0  0  0  0
  -35.3992    0.6606  -45.6352 N   0  0  0  0  0  0  0  0  0  0  0  0
  -35.6281    1.1784  -44.2682 C   0  0  0  0  0  0  0  0  0  0  0  0
  -33.8088    0.0550  -45.8029 X   0  0  0  0  0  0  0  0  0  0  0  0
  1  2  1  0  0  0  0
  2  3  1  0  0  0  0
  2  7  1  0  0  0  0
  3  4  1  0  0  0  0
  4  5  1  0  0  0  0
  5  6  1  0  0  0  0
  5  8  1  0  0  0  0
  6  7  1  0  0  0  0
  8  9  1  0  0  0  0
  8 11  1  0  0  0  0
  9 10  1  0  0  0  0
 10 11  1  0  0  0  0
 10 12  1  0  0  0  0
M  END
> <Index>
10278

> <PropertyFieldDistance>
nan

$$$$
7080924
BBcorina  12272117083D 1   1.00000     0.00000 
CORINA 4.3.0 0026  30.10.2019
 15 16  0  0  0  0  0  0  0  0999 V2000
  -35.6173    1.7386  -45.8434 C   0  0  0  0  0  0  0  0  0  0  0  0
  -36.6766    2.6718  -45.2535 C   0  0  0  0  0  0  0  0  0  0  0  0
  -37.9270    1.8644  -44.8993 C   0  0  0  0  0  0  0  0  0  0  0  0
  -36.1465    3.3103  -44.0414 N   0  0  0  0  0  0  0  0  0  0  0  0
  -37.0919    4.3035  -43.5128 C   0  0  0  0  0  0  0  0  0  0  0  0
  -36.5396    4.8868  -42.2101 C   0  0  0  0  0  0  0  0  0  0  0  0
  -35.2279    5.4975  -42.4674 N   0  0  0  0  0  0  0  0  0  0  0  0
  -34.2823    4.5045  -42.9959 C   0  0  0  0  0  0  0  0  0  0  0  0
  -34.8347    3.9210  -44.2987 C   0  0  0  0  0  0  0  0  0  0  0  0
  -34.6977    6.1360  -41.2553 C   0  0  0  0  0  0  0  0  0  0  0  0
  -33.4294    6.9541  -41.5907 C   0  0  0  0  0  0  0  0  0  0  0  0
  -32.5105    6.6810  -40.3714 C   0  0  0  0  0  0  0  0  0  0  0  0
  -32.7810    5.2557  -40.0527 N   0  0  0  0  0  0  0  0  0  0  0  0
  -34.2350    5.0680  -40.2471 C   0  0  0  0  0  0  0  0  0  0  0  0
  -32.3252    4.8900  -38.4456 X   0  0  0  0  0  0  0  0  0  0  0  0
  1  2  1  0  0  0  0
  2  3  1  0  0  0  0
  2  4  1  0  0  0  0
  4  5  1  0  0  0  0
  4  9  1  0  0  0  0
  5  6  1  0  0  0  0
  6  7  1  0  0  0  0
  7  8  1  0  0  0  0
  7 10  1  0  0  0  0
  8  9  1  0  0  0  0
 10 11  1  0  0  0  0
 10 14  1  0  0  0  0
 11 12  1  0  0  0  0
 12 13  1  0  0  0  0
 13 14  1  0  0  0  0
 13 15  1  0  0  0  0
M  END
> <Index>
10283

> <PropertyFieldDistance>
nan

$$$$
16514696
BBcorina  12272117083D 1   1.00000     0.00000 
CORINA 4.3.0 0026  30.10.2019
 10 10  0  0  0  0  0  0  0  0999 V2000
  -37.7754    6.0849  -42.1226 C   0  0  0  0  0  0  0  0  0  0  0  0
  -36.6587    5.1099  -42.5007 C   0  0  0  0  0  0  0  0  0  0  0  0
  -37.0290    4.3869  -43.7977 C   0  0  0  0  0  0  0  0  0  0  0  0
  -35.9480    3.4664  -44.1723 N   0  0  0  0  0  0  0  0  0  0  0  0
  -34.6958    4.1917  -44.4226 C   0  0  0  0  0  0  0  0  0  0  0  0
  -34.2559    4.9088  -43.1443 C   0  0  0  0  0  0  0  0  0  0  0  0
  -35.3534    5.8832  -42.7080 C   0  0  0  0  0  0  0  0  0  0  0  0
  -34.9466    6.5601  -41.3976 C   0  0  0  0  0  0  0  0  0  0  0  0
  -33.7940    7.3750  -41.6202 O   0  0  0  0  0  0  0  0  0  0  0  0
  -36.3899    2.5210  -45.5270 X   0  0  0  0  0  0  0  0  0  0  0  0
  1  2  1  0  0  0  0
  2  3  1  0  0  0  0
  2  7  1  0  0  0  0
  3  4  1  0  0  0  0
  4  5  1  0  0  0  0
  4 10  1  0  0  0  0
  5  6  1  0  0  0  0
  6  7  1  0  0  0  0
  7  8  1  0  0  0  0
  8  9  1  0  0  0  0
M  END
> <Index>
10298

> <PropertyFieldDistance>
nan

$$$$
6287122
BBcorina  12272117083D 1   1.00000     0.00000 
CORINA 4.3.0 0026  30.10.2019
 15 16  0  0  0  0  0  0  0  0999 V2000
  -33.1151    5.5364  -42.6053 N   0  0  0  0  0  0  0  0  0  0  0  0
  -34.3875    5.2780  -43.2925 C   0  0  0  0  0  0  0  0  0  0  0  0
  -35.5513    5.5913  -42.3480 C   0  0  0  0  0  0  0  0  0  0  0  0
  -36.8714    5.2635  -43.0511 C   0  0  0  0  0  0  0  0  0  0  0  0
  -36.8674    3.7924  -43.4730 C   0  0  0  0  0  0  0  0  0  0  0  0
  -35.7362    3.5440  -44.3758 N   0  0  0  0  0  0  0  0  0  0  0  0
  -35.7798    2.1765  -44.9106 C   0  0  0  0  0  0  0  0  0  0  0  0
  -36.9877    2.0228  -45.7986 C   0  0  0  0  0  0  0  0  0  0  0  0
  -36.8923    2.3006  -47.1495 C   0  0  0  0  0  0  0  0  0  0  0  0
  -38.0002    2.1596  -47.9640 C   0  0  0  0  0  0  0  0  0  0  0  0
  -39.2033    1.7400  -47.4279 C   0  0  0  0  0  0  0  0  0  0  0  0
  -39.2984    1.4614  -46.0773 C   0  0  0  0  0  0  0  0  0  0  0  0
  -38.1896    1.5986  -45.2635 C   0  0  0  0  0  0  0  0  0  0  0  0
  -34.4555    3.8065  -43.7074 C   0  0  0  0  0  0  0  0  0  0  0  0
  -32.9643    4.5620  -41.2081 X   0  0  0  0  0  0  0  0  0  0  0  0
  1  2  1  0  0  0  0
  1 15  1  0  0  0  0
  2  3  1  0  0  0  0
  2 14  1  0  0  0  0
  3  4  1  0  0  0  0
  4  5  1  0  0  0  0
  5  6  1  0  0  0  0
  6  7  1  0  0  0  0
  6 14  1  0  0  0  0
  7  8  1  0  0  0  0
  8  9  2  0  0  0  0
  8 13  1  0  0  0  0
  9 10  1  0  0  0  0
 10 11  2  0  0  0  0
 11 12  1  0  0  0  0
 12 13  2  0  0  0  0
M  END
> <Index>
10304

> <PropertyFieldDistance>
nan

$$$$
6337056
BBcorina  12272117083D 1   1.00000     0.00000 
CORINA 4.3.0 0026  30.10.2019
 13 13  0  0  0  0  0  0  0  0999 V2000
  -36.4015    2.5694  -46.0461 C   0  0  0  0  0  0  0  0  0  0  0  0
  -36.1342    2.0100  -44.6473 C   0  0  0  0  0  0  0  0  0  0  0  0
  -34.9312    1.0659  -44.6970 C   0  0  0  0  0  0  0  0  0  0  0  0
  -35.8507    3.1163  -43.7234 N   0  0  0  0  0  0  0  0  0  0  0  0
  -36.9721    4.0649  -43.6778 C   0  0  0  0  0  0  0  0  0  0  0  0
  -36.6719    5.1565  -42.6478 C   0  0  0  0  0  0  0  0  0  0  0  0
  -35.4227    5.8394  -43.0117 N   0  0  0  0  0  0  0  0  0  0  0  0
  -34.3012    4.8908  -43.0573 C   0  0  0  0  0  0  0  0  0  0  0  0
  -34.6014    3.7993  -44.0873 C   0  0  0  0  0  0  0  0  0  0  0  0
  -37.3467    1.2539  -44.1686 C   0  0  0  0  0  0  0  0  0  0  0  0
  -38.1333    0.7983  -44.9715 O   0  0  0  0  0  0  0  0  0  0  0  0
  -37.5570    1.0839  -42.8482 N   0  0  0  0  0  0  0  0  0  0  0  0
  -35.0926    7.1273  -41.9362 X   0  0  0  0  0  0  0  0  0  0  0  0
  1  2  1  0  0  0  0
  2  3  1  0  0  0  0
  2  4  1  0  0  0  0
  2 10  1  0  0  0  0
  4  5  1  0  0  0  0
  4  9  1  0  0  0  0
  5  6  1  0  0  0  0
  6  7  1  0  0  0  0
  7  8  1  0  0  0  0
  7 13  1  0  0  0  0
  8  9  1  0  0  0  0
 10 11  2  0  0  0  0
 10 12  1  0  0  0  0
M  END
> <Index>
10313

> <PropertyFieldDistance>
nan

$$$$
6582290
BBcorina  12272117083D 1   1.00000     0.00000 
CORINA 4.3.0 0026  30.10.2019
 13 13  0  0  0  0  0  0  0  0999 V2000
  -35.5604    1.7216  -45.7352 C   0  0  0  0  0  0  0  0  0  0  0  0
  -36.6788    2.5338  -45.0790 C   0  0  0  0  0  0  0  0  0  0  0  0
  -36.1227    3.3333  -43.9792 N   0  0  0  0  0  0  0  0  0  0  0  0
  -37.0945    4.3305  -43.5093 C   0  0  0  0  0  0  0  0  0  0  0  0
  -36.5083    5.0867  -42.3147 C   0  0  0  0  0  0  0  0  0  0  0  0
  -35.2495    5.7304  -42.7157 N   0  0  0  0  0  0  0  0  0  0  0  0
  -34.2777    4.7332  -43.1855 C   0  0  0  0  0  0  0  0  0  0  0  0
  -34.8639    3.9770  -44.3801 C   0  0  0  0  0  0  0  0  0  0  0  0
  -37.3102    3.4638  -46.1170 C   0  0  0  0  0  0  0  0  0  0  0  0
  -36.3743    4.4260  -46.5115 F   0  0  0  0  0  0  0  0  0  0  0  0
  -37.7092    2.7171  -47.2307 F   0  0  0  0  0  0  0  0  0  0  0  0
  -38.4243    4.0988  -45.5577 F   0  0  0  0  0  0  0  0  0  0  0  0
  -34.6023    6.6610  -41.4354 X   0  0  0  0  0  0  0  0  0  0  0  0
  1  2  1  0  0  0  0
  2  3  1  0  0  0  0
  2  9  1  0  0  0  0
  3  4  1  0  0  0  0
  3  8  1  0  0  0  0
  4  5  1  0  0  0  0
  5  6  1  0  0  0  0
  6  7  1  0  0  0  0
  6 13  1  0  0  0  0
  7  8  1  0  0  0  0
  9 10  1  0  0  0  0
  9 11  1  0  0  0  0
  9 12  1  0  0  0  0
M  END
> <Index>
10338

> <PropertyFieldDistance>
nan

$$$$
6442658
BBcorina  12272117083D 1   1.00000     0.00000 
CORINA 4.3.0 0026  30.10.2019
 12 12  0  0  0  0  0  0  0  0999 V2000
  -35.5640    1.7546  -45.8719 C   0  0  0  0  0  0  0  0  0  0  0  0
  -36.7343    2.3538  -45.0893 C   0  0  0  0  0  0  0  0  0  0  0  0
  -37.4412    1.2481  -44.3028 C   0  0  0  0  0  0  0  0  0  0  0  0
  -37.7225    2.9984  -46.0635 C   0  0  0  0  0  0  0  0  0  0  0  0
  -36.2317    3.3691  -44.1604 N   0  0  0  0  0  0  0  0  0  0  0  0
  -37.0776    4.1494  -43.2496 C   0  0  0  0  0  0  0  0  0  0  0  0
  -36.2117    5.3511  -42.8108 C   0  0  0  0  0  0  0  0  0  0  0  0
  -34.7809    4.7876  -42.9870 C   0  0  0  0  0  0  0  0  0  0  0  0
  -34.9365    3.7053  -44.0323 C   0  0  0  0  0  0  0  0  0  0  0  0
  -34.0249    3.2093  -44.6599 O   0  0  0  0  0  0  0  0  0  0  0  0
  -36.4674    5.6983  -41.4065 N   0  0  0  0  0  0  0  0  0  0  0  0
  -36.0024    4.4238  -40.3657 X   0  0  0  0  0  0  0  0  0  0  0  0
  1  2  1  0  0  0  0
  2  3  1  0  0  0  0
  2  4  1  0  0  0  0
  2  5  1  0  0  0  0
  5  6  1  0  0  0  0
  5  9  1  0  0  0  0
  6  7  1  0  0  0  0
  7  8  1  0  0  0  0
  7 11  1  0  0  0  0
  8  9  1  0  0  0  0
  9 10  2  0  0  0  0
 11 12  1  0  0  0  0
M  END
> <Index>
10350

> <PropertyFieldDistance>
nan

$$$$
6465836
BBcorina  12272117083D 1   1.00000     0.00000 
CORINA 4.3.0 0026  30.10.2019
 11 11  0  0  0  0  0  0  0  0999 V2000
  -30.6150    5.1696  -43.9969 N   0  0  0  0  0  0  0  0  0  0  0  0
  -31.8523    4.7118  -43.7214 C   0  0  0  0  0  0  0  0  0  0  0  0
  -32.0730    3.5192  -43.7278 O   0  0  0  0  0  0  0  0  0  0  0  0
  -32.9630    5.6821  -43.4116 C   0  0  0  0  0  0  0  0  0  0  0  0
  -34.2559    4.9088  -43.1443 C   0  0  0  0  0  0  0  0  0  0  0  0
  -35.3535    5.8832  -42.7081 C   0  0  0  0  0  0  0  0  0  0  0  0
  -36.6587    5.1099  -42.5007 C   0  0  0  0  0  0  0  0  0  0  0  0
  -37.0290    4.3870  -43.7977 C   0  0  0  0  0  0  0  0  0  0  0  0
  -35.9479    3.4664  -44.1723 N   0  0  0  0  0  0  0  0  0  0  0  0
  -34.6958    4.1915  -44.4227 C   0  0  0  0  0  0  0  0  0  0  0  0
  -36.3899    2.5210  -45.5269 X   0  0  0  0  0  0  0  0  0  0  0  0
  1  2  1  0  0  0  0
  2  3  2  0  0  0  0
  2  4  1  0  0  0  0
  4  5  1  0  0  0  0
  5  6  1  0  0  0  0
  5 10  1  0  0  0  0
  6  7  1  0  0  0  0
  7  8  1  0  0  0  0
  8  9  1  0  0  0  0
  9 10  1  0  0  0  0
  9 11  1  0  0  0  0
M  END
> <Index>
10353

> <PropertyFieldDistance>
nan

$$$$
17519838
BBcorina  12272117083D 1   1.00000     0.00000 
CORINA 4.3.0 0026  30.10.2019
 11 12  0  0  0  0  0  0  0  0999 V2000
  -34.7652    9.0813  -42.0892 O   0  0  0  0  0  0  0  0  0  0  0  0
  -34.4576    7.7373  -42.4651 C   0  0  0  0  0  0  0  0  0  0  0  0
  -35.4567    7.1339  -43.4675 C   0  0  0  0  0  0  0  0  0  0  0  0
  -35.3477    5.8308  -42.6667 C   0  0  0  0  0  0  0  0  0  0  0  0
  -34.9515    6.6853  -41.4568 C   0  0  0  0  0  0  0  0  0  0  0  0
  -36.6818    5.1063  -42.4939 C   0  0  0  0  0  0  0  0  0  0  0  0
  -37.0321    4.3871  -43.8005 C   0  0  0  0  0  0  0  0  0  0  0  0
  -35.9438    3.4693  -44.1601 N   0  0  0  0  0  0  0  0  0  0  0  0
  -34.6963    4.1955  -44.4297 C   0  0  0  0  0  0  0  0  0  0  0  0
  -34.2333    4.9054  -43.1534 C   0  0  0  0  0  0  0  0  0  0  0  0
  -36.3827    2.4899  -45.4913 X   0  0  0  0  0  0  0  0  0  0  0  0
  1  2  1  0  0  0  0
  2  3  1  0  0  0  0
  2  5  1  0  0  0  0
  3  4  1  0  0  0  0
  4  5  1  0  0  0  0
  4  6  1  0  0  0  0
  4 10  1  0  0  0  0
  6  7  1  0  0  0  0
  7  8  1  0  0  0  0
  8  9  1  0  0  0  0
  8 11  1  0  0  0  0
  9 10  1  0  0  0  0
M  END
> <Index>
10405

> <PropertyFieldDistance>
nan

$$$$
17649594
BBcorina  12272117083D 1   1.00000     0.00000 
CORINA 4.3.0 0026  30.10.2019
 11 12  0  0  0  0  0  0  0  0999 V2000
  -34.7652    9.0813  -42.0892 O   0  0  0  0  0  0  0  0  0  0  0  0
  -34.4576    7.7373  -42.4651 C   0  0  0  0  0  0  0  0  0  0  0  0
  -35.4567    7.1339  -43.4675 C   0  0  0  0  0  0  0  0  0  0  0  0
  -35.3477    5.8308  -42.6667 C   0  0  0  0  0  0  0  0  0  0  0  0
  -34.9515    6.6853  -41.4568 C   0  0  0  0  0  0  0  0  0  0  0  0
  -36.6818    5.1063  -42.4939 C   0  0  0  0  0  0  0  0  0  0  0  0
  -37.0321    4.3871  -43.8005 C   0  0  0  0  0  0  0  0  0  0  0  0
  -35.9438    3.4693  -44.1601 N   0  0  0  0  0  0  0  0  0  0  0  0
  -34.6963    4.1955  -44.4297 C   0  0  0  0  0  0  0  0  0  0  0  0
  -34.2333    4.9054  -43.1534 C   0  0  0  0  0  0  0  0  0  0  0  0
  -36.3827    2.4899  -45.4913 X   0  0  0  0  0  0  0  0  0  0  0  0
  1  2  1  0  0  0  0
  2  3  1  0  0  0  0
  2  5  1  0  0  0  0
  3  4  1  0  0  0  0
  4  5  1  0  0  0  0
  4  6  1  0  0  0  0
  4 10  1  0  0  0  0
  6  7  1  0  0  0  0
  7  8  1  0  0  0  0
  8  9  1  0  0  0  0
  8 11  1  0  0  0  0
  9 10  1  0  0  0  0
M  END
> <Index>
10408

> <PropertyFieldDistance>
nan

$$$$
6506076
BBcorina  12272117083D 1   1.00000     0.00000 
CORINA 4.3.0 0026  30.10.2019
 12 12  0  0  0  0  0  0  0  0999 V2000
  -36.6841    1.4720  -45.2663 C   0  0  0  0  0  0  0  0  0  0  0  0
  -35.8901    2.7492  -45.5475 C   0  0  0  0  0  0  0  0  0  0  0  0
  -36.5523    3.5201  -46.6911 C   0  0  0  0  0  0  0  0  0  0  0  0
  -35.8672    3.5847  -44.3442 N   0  0  0  0  0  0  0  0  0  0  0  0
  -36.9797    4.0614  -43.7720 C   0  0  0  0  0  0  0  0  0  0  0  0
  -38.1099    3.8679  -44.1653 O   0  0  0  0  0  0  0  0  0  0  0  0
  -36.6029    4.8770  -42.5545 C   0  0  0  0  0  0  0  0  0  0  0  0
  -35.0629    4.7964  -42.5278 C   0  0  0  0  0  0  0  0  0  0  0  0
  -34.6003    4.1534  -41.2908 N   0  0  0  0  0  0  0  0  0  0  0  0
  -34.7318    3.9390  -43.7298 C   0  0  0  0  0  0  0  0  0  0  0  0
  -33.6154    3.6228  -44.0805 O   0  0  0  0  0  0  0  0  0  0  0  0
  -33.0149    4.6571  -40.8942 X   0  0  0  0  0  0  0  0  0  0  0  0
  1  2  1  0  0  0  0
  2  3  1  0  0  0  0
  2  4  1  0  0  0  0
  4  5  1  0  0  0  0
  4 10  1  0  0  0  0
  5  6  2  0  0  0  0
  5  7  1  0  0  0  0
  7  8  1  0  0  0  0
  8  9  1  0  0  0  0
  8 10  1  0  0  0  0
  9 12  1  0  0  0  0
 10 11  2  0  0  0  0
M  END
> <Index>
10415

> <PropertyFieldDistance>
nan

$$$$
13944372
BBcorina  12272117083D 1   1.00000     0.00000 
CORINA 4.3.0 0026  30.10.2019
 11 11  0  0  0  0  0  0  0  0999 V2000
  -33.6407    7.3298  -41.6051 C   0  0  0  0  0  0  0  0  0  0  0  0
  -34.9466    6.5602  -41.3976 C   0  0  0  0  0  0  0  0  0  0  0  0
  -36.0466    7.5302  -40.9617 C   0  0  0  0  0  0  0  0  0  0  0  0
  -35.3534    5.8832  -42.7079 C   0  0  0  0  0  0  0  0  0  0  0  0
  -35.5413    6.8749  -43.7195 O   0  0  0  0  0  0  0  0  0  0  0  0
  -36.6586    5.1099  -42.5007 C   0  0  0  0  0  0  0  0  0  0  0  0
  -37.0290    4.3869  -43.7977 C   0  0  0  0  0  0  0  0  0  0  0  0
  -35.9480    3.4663  -44.1723 N   0  0  0  0  0  0  0  0  0  0  0  0
  -34.6958    4.1917  -44.4226 C   0  0  0  0  0  0  0  0  0  0  0  0
  -34.2559    4.9088  -43.1443 C   0  0  0  0  0  0  0  0  0  0  0  0
  -36.3899    2.5211  -45.5270 X   0  0  0  0  0  0  0  0  0  0  0  0
  1  2  1  0  0  0  0
  2  3  1  0  0  0  0
  2  4  1  0  0  0  0
  4  5  1  0  0  0  0
  4  6  1  0  0  0  0
  4 10  1  0  0  0  0
  6  7  1  0  0  0  0
  7  8  1  0  0  0  0
  8  9  1  0  0  0  0
  8 11  1  0  0  0  0
  9 10  1  0  0  0  0
M  END
> <Index>
10416

> <PropertyFieldDistance>
nan

$$$$
6554010
BBcorina  12272117083D 1   1.00000     0.00000 
CORINA 4.3.0 0026  30.10.2019
 10 11  0  0  0  0  0  0  0  0999 V2000
  -34.9800    3.4278  -41.3953 F   0  0  0  0  0  0  0  0  0  0  0  0
  -34.4301    4.6687  -41.7342 C   0  0  0  0  0  0  0  0  0  0  0  0
  -33.4678    5.1655  -40.8486 F   0  0  0  0  0  0  0  0  0  0  0  0
  -35.3405    5.6777  -42.4232 C   0  0  0  0  0  0  0  0  0  0  0  0
  -36.7971    5.3165  -42.6872 C   0  0  0  0  0  0  0  0  0  0  0  0
  -36.8817    3.9451  -43.3600 C   0  0  0  0  0  0  0  0  0  0  0  0
  -36.0381    3.9606  -44.5657 N   0  0  0  0  0  0  0  0  0  0  0  0
  -34.6211    3.8603  -44.1976 C   0  0  0  0  0  0  0  0  0  0  0  0
  -34.2492    4.9810  -43.2272 C   0  0  0  0  0  0  0  0  0  0  0  0
  -36.4822    2.7072  -45.6407 X   0  0  0  0  0  0  0  0  0  0  0  0
  1  2  1  0  0  0  0
  2  3  1  0  0  0  0
  2  4  1  0  0  0  0
  2  9  1  0  0  0  0
  4  5  1  0  0  0  0
  4  9  1  0  0  0  0
  5  6  1  0  0  0  0
  6  7  1  0  0  0  0
  7  8  1  0  0  0  0
  7 10  1  0  0  0  0
  8  9  1  0  0  0  0
M  END
> <Index>
10445

> <PropertyFieldDistance>
nan

$$$$
6725968
BBcorina  12272117083D 1   1.00000     0.00000 
CORINA 4.3.0 0026  30.10.2019
 11 12  0  0  0  0  0  0  0  0999 V2000
  -35.9419    3.5210  -44.1842 N   0  0  0  0  0  0  0  0  0  0  0  0
  -37.0253    4.4155  -43.7614 C   0  0  0  0  0  0  0  0  0  0  0  0
  -36.6839    5.0399  -42.3993 C   0  0  0  0  0  0  0  0  0  0  0  0
  -35.3276    5.5959  -42.5090 N   0  0  0  0  0  0  0  0  0  0  0  0
  -34.2016    4.8152  -43.0683 C   0  0  0  0  0  0  0  0  0  0  0  0
  -33.1111    5.8752  -43.2880 C   0  0  0  0  0  0  0  0  0  0  0  0
  -33.6629    7.0833  -42.6524 N   0  0  0  0  0  0  0  0  0  0  0  0
  -34.8940    6.8143  -42.1895 C   0  0  0  0  0  0  0  0  0  0  0  0
  -35.5501    7.6065  -41.5413 O   0  0  0  0  0  0  0  0  0  0  0  0
  -34.6774    4.2390  -44.4054 C   0  0  0  0  0  0  0  0  0  0  0  0
  -36.3906    2.6283  -45.5720 X   0  0  0  0  0  0  0  0  0  0  0  0
  1  2  1  0  0  0  0
  1 10  1  0  0  0  0
  1 11  1  0  0  0  0
  2  3  1  0  0  0  0
  3  4  1  0  0  0  0
  4  5  1  0  0  0  0
  4  8  1  0  0  0  0
  5  6  1  0  0  0  0
  5 10  1  0  0  0  0
  6  7  1  0  0  0  0
  7  8  1  0  0  0  0
  8  9  2  0  0  0  0
M  END
> <Index>
10453

> <PropertyFieldDistance>
nan

$$$$
14654528
BBcorina  12272117083D 1   1.00000     0.00000 
CORINA 4.3.0 0026  30.10.2019
 13 13  0  0  0  0  0  0  0  0999 V2000
  -36.3354    2.3075  -44.8787 C   0  0  0  0  0  0  0  0  0  0  0  0
  -35.9453    3.3416  -43.9110 N   0  0  0  0  0  0  0  0  0  0  0  0
  -37.0432    4.2897  -43.6828 C   0  0  0  0  0  0  0  0  0  0  0  0
  -36.6554    5.2625  -42.5667 C   0  0  0  0  0  0  0  0  0  0  0  0
  -35.3834    6.0133  -42.9700 C   0  0  0  0  0  0  0  0  0  0  0  0
  -34.2691    5.0007  -43.2489 C   0  0  0  0  0  0  0  0  0  0  0  0
  -34.7262    4.0356  -44.3451 C   0  0  0  0  0  0  0  0  0  0  0  0
  -34.9744    6.9037  -41.8810 N   0  0  0  0  0  0  0  0  0  0  0  0
  -34.2331    7.9974  -42.1471 C   0  0  0  0  0  0  0  0  0  0  0  0
  -33.9047    8.2445  -43.2882 O   0  0  0  0  0  0  0  0  0  0  0  0
  -33.8124    8.9134  -41.0269 C   0  0  0  0  0  0  0  0  0  0  0  0
  -33.0193   10.0228  -41.5730 N   0  0  0  0  0  0  0  0  0  0  0  0
  -32.5205   11.0886  -40.3323 X   0  0  0  0  0  0  0  0  0  0  0  0
  1  2  1  0  0  0  0
  2  3  1  0  0  0  0
  2  7  1  0  0  0  0
  3  4  1  0  0  0  0
  4  5  1  0  0  0  0
  5  6  1  0  0  0  0
  5  8  1  0  0  0  0
  6  7  1  0  0  0  0
  8  9  1  0  0  0  0
  9 10  2  0  0  0  0
  9 11  1  0  0  0  0
 11 12  1  0  0  0  0
 12 13  1  0  0  0  0
M  END
> <Index>
10483

> <PropertyFieldDistance>
nan

$$$$
17039380
BBcorina  12272117083D 1   1.00000     0.00000 
CORINA 4.3.0 0026  30.10.2019
  8  9  0  0  0  0  0  0  0  0999 V2000
  -36.0635    3.5312  -44.4159 N   0  0  0  0  0  0  0  0  0  0  0  0
  -36.9970    4.5484  -43.8660 C   0  0  0  0  0  0  0  0  0  0  0  0
  -36.4713    4.8312  -42.4404 C   0  0  0  0  0  0  0  0  0  0  0  0
  -34.9859    4.4420  -42.4867 C   0  0  0  0  0  0  0  0  0  0  0  0
  -33.9341    5.2255  -41.7130 C   0  0  0  0  0  0  0  0  0  0  0  0
  -34.2955    3.7982  -41.2917 C   0  0  0  0  0  0  0  0  0  0  0  0
  -34.7259    3.9523  -43.9207 C   0  0  0  0  0  0  0  0  0  0  0  0
  -36.1082    3.5188  -46.1253 X   0  0  0  0  0  0  0  0  0  0  0  0
  1  2  1  0  0  0  0
  1  7  1  0  0  0  0
  1  8  1  0  0  0  0
  2  3  1  0  0  0  0
  3  4  1  0  0  0  0
  4  5  1  0  0  0  0
  4  6  1  0  0  0  0
  4  7  1  0  0  0  0
  5  6  1  0  0  0  0
M  END
> <Index>
10486

> <PropertyFieldDistance>
nan

$$$$
15776822
BBcorina  12272117083D 1   1.00000     0.00000 
CORINA 4.3.0 0026  30.10.2019
 11 11  0  0  0  0  0  0  0  0999 V2000
  -37.3302   -1.5220  -47.5348 O   0  0  0  0  0  0  0  0  0  0  0  0
  -36.7995   -0.1957  -47.5017 C   0  0  0  0  0  0  0  0  0  0  0  0
  -35.4820   -0.1647  -48.3031 C   0  0  0  0  0  0  0  0  0  0  0  0
  -35.1980    1.2584  -48.7010 C   0  0  0  0  0  0  0  0  0  0  0  0
  -34.2727    1.9769  -47.7004 C   0  0  0  0  0  0  0  0  0  0  0  0
  -34.6211    1.6629  -46.2329 C   0  0  0  0  0  0  0  0  0  0  0  0
  -36.1059    1.6538  -45.9846 C   0  0  0  0  0  0  0  0  0  0  0  0
  -36.3933    2.1751  -44.5753 C   0  0  0  0  0  0  0  0  0  0  0  0
  -36.0173    3.5927  -44.4913 N   0  0  0  0  0  0  0  0  0  0  0  0
  -36.6145    0.2034  -46.1143 C   0  0  0  0  0  0  0  0  0  0  0  0
  -36.3228    4.2164  -42.9287 X   0  0  0  0  0  0  0  0  0  0  0  0
  1  2  1  0  0  0  0
  2  3  1  0  0  0  0
  2 10  1  0  0  0  0
  3  4  1  0  0  0  0
  4  5  1  0  0  0  0
  5  6  1  0  0  0  0
  6  7  1  0  0  0  0
  7  8  1  0  0  0  0
  7 10  1  0  0  0  0
  8  9  1  0  0  0  0
  9 11  1  0  0  0  0
M  END
> <Index>
10515

> <PropertyFieldDistance>
nan

$$$$
9209720
BBcorina  12272117083D 1   1.00000     0.00000 
CORINA 4.3.0 0026  30.10.2019
 12 12  0  0  0  0  0  0  0  0999 V2000
  -37.0317    1.0918  -46.7043 C   0  0  0  0  0  0  0  0  0  0  0  0
  -36.6910    2.3887  -45.9676 C   0  0  0  0  0  0  0  0  0  0  0  0
  -36.0472    2.0557  -44.6202 C   0  0  0  0  0  0  0  0  0  0  0  0
  -35.7209    3.2976  -43.9147 N   0  0  0  0  0  0  0  0  0  0  0  0
  -36.7070    3.9143  -43.0118 C   0  0  0  0  0  0  0  0  0  0  0  0
  -37.2115    5.2075  -43.6578 C   0  0  0  0  0  0  0  0  0  0  0  0
  -36.2882    6.3663  -43.3330 C   0  0  0  0  0  0  0  0  0  0  0  0
  -34.9632    6.2517  -43.9291 N   0  0  0  0  0  0  0  0  0  0  0  0
  -34.1822    5.1497  -43.3522 C   0  0  0  0  0  0  0  0  0  0  0  0
  -34.5257    3.8702  -44.0849 C   0  0  0  0  0  0  0  0  0  0  0  0
  -33.7148    3.3653  -44.8321 O   0  0  0  0  0  0  0  0  0  0  0  0
  -35.0669    6.1047  -45.6296 X   0  0  0  0  0  0  0  0  0  0  0  0
  1  2  1  0  0  0  0
  2  3  1  0  0  0  0
  3  4  1  0  0  0  0
  4  5  1  0  0  0  0
  4 10  1  0  0  0  0
  5  6  1  0  0  0  0
  6  7  1  0  0  0  0
  7  8  1  0  0  0  0
  8  9  1  0  0  0  0
  8 12  1  0  0  0  0
  9 10  1  0  0  0  0
 10 11  2  0  0  0  0
M  END
> <Index>
10522

> <PropertyFieldDistance>
nan

$$$$
9196488
BBcorina  12272117083D 1   1.00000     0.00000 
CORINA 4.3.0 0026  30.10.2019
 13 13  0  0  0  0  0  0  0  0999 V2000
  -36.2421    3.4138  -48.0872 C   0  0  0  0  0  0  0  0  0  0  0  0
  -35.7391    3.0566  -46.7983 O   0  0  0  0  0  0  0  0  0  0  0  0
  -36.6910    2.3887  -45.9676 C   0  0  0  0  0  0  0  0  0  0  0  0
  -36.0472    2.0558  -44.6201 C   0  0  0  0  0  0  0  0  0  0  0  0
  -35.7209    3.2976  -43.9147 N   0  0  0  0  0  0  0  0  0  0  0  0
  -36.7070    3.9143  -43.0117 C   0  0  0  0  0  0  0  0  0  0  0  0
  -37.2116    5.2075  -43.6578 C   0  0  0  0  0  0  0  0  0  0  0  0
  -36.2882    6.3663  -43.3330 C   0  0  0  0  0  0  0  0  0  0  0  0
  -34.9631    6.2517  -43.9292 N   0  0  0  0  0  0  0  0  0  0  0  0
  -34.1822    5.1497  -43.3521 C   0  0  0  0  0  0  0  0  0  0  0  0
  -34.5257    3.8701  -44.0850 C   0  0  0  0  0  0  0  0  0  0  0  0
  -33.7147    3.3653  -44.8321 O   0  0  0  0  0  0  0  0  0  0  0  0
  -35.0669    6.1047  -45.6296 X   0  0  0  0  0  0  0  0  0  0  0  0
  1  2  1  0  0  0  0
  2  3  1  0  0  0  0
  3  4  1  0  0  0  0
  4  5  1  0  0  0  0
  5  6  1  0  0  0  0
  5 11  1  0  0  0  0
  6  7  1  0  0  0  0
  7  8  1  0  0  0  0
  8  9  1  0  0  0  0
  9 10  1  0  0  0  0
  9 13  1  0  0  0  0
 10 11  1  0  0  0  0
 11 12  2  0  0  0  0
M  END
> <Index>
10523

> <PropertyFieldDistance>
nan

$$$$
15724860
BBcorina  12272117083D 1   1.00000     0.00000 
CORINA 4.3.0 0026  30.10.2019
 12 12  0  0  0  0  0  0  0  0999 V2000
  -38.3264    2.7569  -46.2933 C   0  0  0  0  0  0  0  0  0  0  0  0
  -37.0246    2.3531  -46.9885 C   0  0  0  0  0  0  0  0  0  0  0  0
  -36.1059    1.6538  -45.9847 C   0  0  0  0  0  0  0  0  0  0  0  0
  -36.3934    2.1751  -44.5752 C   0  0  0  0  0  0  0  0  0  0  0  0
  -36.0173    3.5926  -44.4913 N   0  0  0  0  0  0  0  0  0  0  0  0
  -36.3486    0.1314  -46.0335 C   0  0  0  0  0  0  0  0  0  0  0  0
  -36.5492   -0.3551  -47.3904 C   0  0  0  0  0  0  0  0  0  0  0  0
  -35.3162   -0.1216  -48.2871 C   0  0  0  0  0  0  0  0  0  0  0  0
  -35.3251    1.3105  -48.7486 C   0  0  0  0  0  0  0  0  0  0  0  0
  -34.4827    2.2275  -47.8415 C   0  0  0  0  0  0  0  0  0  0  0  0
  -34.6691    1.9205  -46.3433 C   0  0  0  0  0  0  0  0  0  0  0  0
  -36.4635    4.2566  -42.9799 X   0  0  0  0  0  0  0  0  0  0  0  0
  1  2  1  0  0  0  0
  2  3  1  0  0  0  0
  3  4  1  0  0  0  0
  3  6  1  0  0  0  0
  3 11  1  0  0  0  0
  4  5  1  0  0  0  0
  5 12  1  0  0  0  0
  6  7  1  0  0  0  0
  7  8  1  0  0  0  0
  8  9  1  0  0  0  0
  9 10  1  0  0  0  0
 10 11  1  0  0  0  0
M  END
> <Index>
10528

> <PropertyFieldDistance>
nan

$$$$
6888350
BBcorina  12272117083D 1   1.00000     0.00000 
CORINA 4.3.0 0026  30.10.2019
 13 14  0  0  0  0  0  0  0  0999 V2000
  -35.5685   -0.1253  -47.2437 N   0  0  0  0  0  0  0  0  0  0  0  0
  -36.1548    0.6031  -46.2094 C   0  0  0  0  0  0  0  0  0  0  0  0
  -37.1671    0.1258  -45.5356 N   0  0  0  0  0  0  0  0  0  0  0  0
  -37.5619    1.3164  -44.3892 S   0  0  0  0  0  0  0  0  0  0  0  0
  -36.3245    2.4065  -44.8875 C   0  0  0  0  0  0  0  0  0  0  0  0
  -35.7108    1.7987  -45.8807 N   0  0  0  0  0  0  0  0  0  0  0  0
  -36.0412    3.6536  -44.3615 N   0  0  0  0  0  0  0  0  0  0  0  0
  -36.9586    3.9821  -43.2615 C   0  0  0  0  0  0  0  0  0  0  0  0
  -36.6647    5.3982  -42.7608 C   0  0  0  0  0  0  0  0  0  0  0  0
  -35.2659    5.4775  -42.3171 N   0  0  0  0  0  0  0  0  0  0  0  0
  -34.3481    5.1494  -43.4169 C   0  0  0  0  0  0  0  0  0  0  0  0
  -34.6421    3.7332  -43.9176 C   0  0  0  0  0  0  0  0  0  0  0  0
  -34.9160    7.0198  -41.6665 X   0  0  0  0  0  0  0  0  0  0  0  0
  1  2  1  0  0  0  0
  2  3  2  0  0  0  0
  2  6  1  0  0  0  0
  3  4  1  0  0  0  0
  4  5  1  0  0  0  0
  5  6  2  0  0  0  0
  5  7  1  0  0  0  0
  7  8  1  0  0  0  0
  7 12  1  0  0  0  0
  8  9  1  0  0  0  0
  9 10  1  0  0  0  0
 10 11  1  0  0  0  0
 10 13  1  0  0  0  0
 11 12  1  0  0  0  0
M  END
> <Index>
10567

> <PropertyFieldDistance>
nan

$$$$
6887272
BBcorina  12272117083D 1   1.00000     0.00000 
CORINA 4.3.0 0026  30.10.2019
 11 12  0  0  0  0  0  0  0  0999 V2000
  -38.2009    4.8736  -44.3357 C   0  0  0  0  0  0  0  0  0  0  0  0
  -37.0929    4.1701  -43.5495 C   0  0  0  0  0  0  0  0  0  0  0  0
  -36.3899    5.1758  -42.6192 C   0  0  0  0  0  0  0  0  0  0  0  0
  -34.9081    5.1659  -43.0597 C   0  0  0  0  0  0  0  0  0  0  0  0
  -34.7685    3.7987  -43.7751 C   0  0  0  0  0  0  0  0  0  0  0  0
  -36.0675    3.6496  -44.4797 N   0  0  0  0  0  0  0  0  0  0  0  0
  -36.3262    2.2429  -44.8149 C   0  0  0  0  0  0  0  0  0  0  0  0
  -37.5303    1.9397  -45.7088 C   0  0  0  0  0  0  0  0  0  0  0  0
  -36.1107    1.8115  -46.2670 C   0  0  0  0  0  0  0  0  0  0  0  0
  -34.0184    5.2353  -41.8928 N   0  0  0  0  0  0  0  0  0  0  0  0
  -34.1922    3.8493  -40.9064 X   0  0  0  0  0  0  0  0  0  0  0  0
  1  2  1  0  0  0  0
  2  3  1  0  0  0  0
  2  6  1  0  0  0  0
  3  4  1  0  0  0  0
  4  5  1  0  0  0  0
  4 10  1  0  0  0  0
  5  6  1  0  0  0  0
  6  7  1  0  0  0  0
  7  8  1  0  0  0  0
  7  9  1  0  0  0  0
  8  9  1  0  0  0  0
 10 11  1  0  0  0  0
M  END
> <Index>
10573

> <PropertyFieldDistance>
nan

$$$$
6954916
BBcorina  12272117083D 1   1.00000     0.00000 
CORINA 4.3.0 0026  30.10.2019
  9  9  0  0  0  0  0  0  0  0999 V2000
  -32.7656    3.9712  -41.6937 C   0  0  0  0  0  0  0  0  0  0  0  0
  -34.2721    4.0779  -41.4486 C   0  0  0  0  0  0  0  0  0  0  0  0
  -34.5257    4.8924  -40.1785 C   0  0  0  0  0  0  0  0  0  0  0  0
  -34.9348    4.7718  -42.6403 C   0  0  0  0  0  0  0  0  0  0  0  0
  -36.4674    4.8265  -42.4451 C   0  0  0  0  0  0  0  0  0  0  0  0
  -37.0084    4.5497  -43.8703 C   0  0  0  0  0  0  0  0  0  0  0  0
  -36.0599    3.5385  -44.4034 N   0  0  0  0  0  0  0  0  0  0  0  0
  -34.7221    3.9484  -43.9242 C   0  0  0  0  0  0  0  0  0  0  0  0
  -36.1109    3.4912  -46.1120 X   0  0  0  0  0  0  0  0  0  0  0  0
  1  2  1  0  0  0  0
  2  3  1  0  0  0  0
  2  4  1  0  0  0  0
  4  5  1  0  0  0  0
  4  8  1  0  0  0  0
  5  6  1  0  0  0  0
  6  7  1  0  0  0  0
  7  8  1  0  0  0  0
  7  9  1  0  0  0  0
M  END
> <Index>
10582

> <PropertyFieldDistance>
nan

$$$$
8600236
BBcorina  12272117083D 1   1.00000     0.00000 
CORINA 4.3.0 0026  30.10.2019
 11 12  0  0  0  0  0  0  0  0999 V2000
  -36.0625    2.2746  -46.4164 N   0  0  0  0  0  0  0  0  0  0  0  0
  -36.6473    3.0158  -45.4018 C   0  0  0  0  0  0  0  0  0  0  0  0
  -37.9358    3.1801  -45.1930 N   0  0  0  0  0  0  0  0  0  0  0  0
  -38.1214    3.9296  -44.1612 N   0  0  0  0  0  0  0  0  0  0  0  0
  -36.9790    4.2800  -43.6604 C   0  0  0  0  0  0  0  0  0  0  0  0
  -36.7014    5.1446  -42.4564 C   0  0  0  0  0  0  0  0  0  0  0  0
  -35.2381    4.9328  -42.0451 C   0  0  0  0  0  0  0  0  0  0  0  0
  -34.3397    5.0625  -43.2781 C   0  0  0  0  0  0  0  0  0  0  0  0
  -34.5654    3.8649  -44.2087 C   0  0  0  0  0  0  0  0  0  0  0  0
  -36.0018    3.7117  -44.4340 N   0  0  0  0  0  0  0  0  0  0  0  0
  -37.0444    1.4589  -47.5543 X   0  0  0  0  0  0  0  0  0  0  0  0
  1  2  1  0  0  0  0
  1 11  1  0  0  0  0
  2  3  2  0  0  0  0
  2 10  1  0  0  0  0
  3  4  1  0  0  0  0
  4  5  2  0  0  0  0
  5  6  1  0  0  0  0
  5 10  1  0  0  0  0
  6  7  1  0  0  0  0
  7  8  1  0  0  0  0
  8  9  1  0  0  0  0
  9 10  1  0  0  0  0
M  END
> <Index>
10584

> <PropertyFieldDistance>
nan

$$$$
6954956
BBcorina  12272117083D 1   1.00000     0.00000 
CORINA 4.3.0 0026  30.10.2019
  8  8  0  0  0  0  0  0  0  0999 V2000
  -32.5945    4.9278  -41.9151 C   0  0  0  0  0  0  0  0  0  0  0  0
  -34.0824    4.7988  -41.5828 C   0  0  0  0  0  0  0  0  0  0  0  0
  -34.9087    5.0034  -42.8541 C   0  0  0  0  0  0  0  0  0  0  0  0
  -36.4203    5.0032  -42.5302 C   0  0  0  0  0  0  0  0  0  0  0  0
  -37.0792    4.2273  -43.6856 C   0  0  0  0  0  0  0  0  0  0  0  0
  -35.9998    3.8419  -44.6205 N   0  0  0  0  0  0  0  0  0  0  0  0
  -34.7584    3.7907  -43.8067 C   0  0  0  0  0  0  0  0  0  0  0  0
  -36.3245    2.3247  -45.3393 X   0  0  0  0  0  0  0  0  0  0  0  0
  1  2  1  0  0  0  0
  2  3  1  0  0  0  0
  3  4  1  0  0  0  0
  3  7  1  0  0  0  0
  4  5  1  0  0  0  0
  5  6  1  0  0  0  0
  6  7  1  0  0  0  0
  6  8  1  0  0  0  0
M  END
> <Index>
10595

> <PropertyFieldDistance>
nan

$$$$
9983412
BBcorina  12272117083D 1   1.00000     0.00000 
CORINA 4.3.0 0026  30.10.2019
 12 12  0  0  0  0  0  0  0  0999 V2000
  -35.5686    5.3574  -39.2479 F   0  0  0  0  0  0  0  0  0  0  0  0
  -35.8122    6.4843  -40.0404 C   0  0  0  0  0  0  0  0  0  0  0  0
  -35.5202    7.6406  -39.3091 F   0  0  0  0  0  0  0  0  0  0  0  0
  -37.1575    6.5025  -40.4242 F   0  0  0  0  0  0  0  0  0  0  0  0
  -34.9269    6.4321  -41.2871 C   0  0  0  0  0  0  0  0  0  0  0  0
  -35.2462    5.1675  -42.0868 C   0  0  0  0  0  0  0  0  0  0  0  0
  -36.6793    5.2476  -42.6203 C   0  0  0  0  0  0  0  0  0  0  0  0
  -36.9723    4.0086  -43.4694 C   0  0  0  0  0  0  0  0  0  0  0  0
  -36.0191    3.9414  -44.5845 N   0  0  0  0  0  0  0  0  0  0  0  0
  -34.6396    3.8164  -44.0971 C   0  0  0  0  0  0  0  0  0  0  0  0
  -34.2769    5.0496  -43.2664 C   0  0  0  0  0  0  0  0  0  0  0  0
  -36.4111    2.6624  -45.6495 X   0  0  0  0  0  0  0  0  0  0  0  0
  1  2  1  0  0  0  0
  2  3  1  0  0  0  0
  2  4  1  0  0  0  0
  2  5  1  0  0  0  0
  5  6  1  0  0  0  0
  6  7  1  0  0  0  0
  6 11  1  0  0  0  0
  7  8  1  0  0  0  0
  8  9  1  0  0  0  0
  9 10  1  0  0  0  0
  9 12  1  0  0  0  0
 10 11  1  0  0  0  0
M  END
> <Index>
10599

> <PropertyFieldDistance>
nan

$$$$
7044948
BBcorina  12272117083D 1   1.00000     0.00000 
CORINA 4.3.0 0026  30.10.2019
 11 12  0  0  0  0  0  0  0  0999 V2000
  -36.7944    6.6734  -43.0284 C   0  0  0  0  0  0  0  0  0  0  0  0
  -36.4027    5.2373  -42.6744 C   0  0  0  0  0  0  0  0  0  0  0  0
  -37.0785    4.2430  -43.6428 C   0  0  0  0  0  0  0  0  0  0  0  0
  -36.0596    3.1845  -43.8635 N   0  0  0  0  0  0  0  0  0  0  0  0
  -34.7758    3.9267  -43.9533 C   0  0  0  0  0  0  0  0  0  0  0  0
  -34.8880    5.0293  -42.8787 C   0  0  0  0  0  0  0  0  0  0  0  0
  -34.2620    6.2704  -43.3538 N   0  0  0  0  0  0  0  0  0  0  0  0
  -36.3285    2.4456  -45.1044 C   0  0  0  0  0  0  0  0  0  0  0  0
  -35.3667    1.3153  -45.4761 C   0  0  0  0  0  0  0  0  0  0  0  0
  -36.7759    0.9882  -44.9760 C   0  0  0  0  0  0  0  0  0  0  0  0
  -34.7724    6.6451  -44.9423 X   0  0  0  0  0  0  0  0  0  0  0  0
  1  2  1  0  0  0  0
  2  3  1  0  0  0  0
  2  6  1  0  0  0  0
  3  4  1  0  0  0  0
  4  5  1  0  0  0  0
  4  8  1  0  0  0  0
  5  6  1  0  0  0  0
  6  7  1  0  0  0  0
  7 11  1  0  0  0  0
  8  9  1  0  0  0  0
  8 10  1  0  0  0  0
  9 10  1  0  0  0  0
M  END
> <Index>
10607

> <PropertyFieldDistance>
nan

$$$$
7207612
BBcorina  12272117083D 1   1.00000     0.00000 
CORINA 4.3.0 0026  30.10.2019
 11 11  0  0  0  0  0  0  0  0999 V2000
  -36.9247    0.1927  -44.1306 O   0  0  0  0  0  0  0  0  0  0  0  0
  -35.6273    0.7917  -44.1397 C   0  0  0  0  0  0  0  0  0  0  0  0
  -35.7688    2.3151  -44.1302 C   0  0  0  0  0  0  0  0  0  0  0  0
  -36.4006    2.7372  -42.8314 C   0  0  0  0  0  0  0  0  0  0  0  0
  -37.3104    3.9530  -43.1018 C   0  0  0  0  0  0  0  0  0  0  0  0
  -36.5610    5.1972  -43.1941 C   0  0  0  0  0  0  0  0  0  0  0  0
  -35.5520    5.1904  -44.3607 C   0  0  0  0  0  0  0  0  0  0  0  0
  -34.3275    4.4295  -43.9295 C   0  0  0  0  0  0  0  0  0  0  0  0
  -34.3794    2.9461  -44.3424 C   0  0  0  0  0  0  0  0  0  0  0  0
  -33.3938    2.1989  -43.5498 N   0  0  0  0  0  0  0  0  0  0  0  0
  -31.8541    2.2367  -44.2929 X   0  0  0  0  0  0  0  0  0  0  0  0
  1  2  1  0  0  0  0
  2  3  1  0  0  0  0
  3  4  1  0  0  0  0
  3  9  1  0  0  0  0
  4  5  1  0  0  0  0
  5  6  1  0  0  0  0
  6  7  1  0  0  0  0
  7  8  1  0  0  0  0
  8  9  1  0  0  0  0
  9 10  1  0  0  0  0
 10 11  1  0  0  0  0
M  END
> <Index>
10611

> <PropertyFieldDistance>
nan

$$$$
13570708
BBcorina  12272117083D 1   1.00000     0.00000 
CORINA 4.3.0 0026  30.10.2019
 10 10  0  0  0  0  0  0  0  0999 V2000
  -36.1378    0.6469  -46.4934 F   0  0  0  0  0  0  0  0  0  0  0  0
  -35.7823    1.9276  -46.0565 C   0  0  0  0  0  0  0  0  0  0  0  0
  -36.5152    2.2426  -44.7509 C   0  0  0  0  0  0  0  0  0  0  0  0
  -36.1420    3.5873  -44.2922 N   0  0  0  0  0  0  0  0  0  0  0  0
  -36.9971    4.0198  -43.1779 C   0  0  0  0  0  0  0  0  0  0  0  0
  -36.6299    5.4522  -42.7828 C   0  0  0  0  0  0  0  0  0  0  0  0
  -35.2107    5.5048  -42.4050 N   0  0  0  0  0  0  0  0  0  0  0  0
  -34.3557    5.0723  -43.5191 C   0  0  0  0  0  0  0  0  0  0  0  0
  -34.7229    3.6399  -43.9143 C   0  0  0  0  0  0  0  0  0  0  0  0
  -34.7764    7.0700  -41.8709 X   0  0  0  0  0  0  0  0  0  0  0  0
  1  2  1  0  0  0  0
  2  3  1  0  0  0  0
  3  4  1  0  0  0  0
  4  5  1  0  0  0  0
  4  9  1  0  0  0  0
  5  6  1  0  0  0  0
  6  7  1  0  0  0  0
  7  8  1  0  0  0  0
  7 10  1  0  0  0  0
  8  9  1  0  0  0  0
M  END
> <Index>
10645

> <PropertyFieldDistance>
nan

$$$$
15637446
BBcorina  12272117083D 1   1.00000     0.00000 
CORINA 4.3.0 0026  30.10.2019
 11 12  0  0  0  0  0  0  0  0999 V2000
  -34.3045    1.7117  -46.9384 C   0  0  0  0  0  0  0  0  0  0  0  0
  -34.7519    2.6216  -45.8236 C   0  0  0  0  0  0  0  0  0  0  0  0
  -36.0300    2.8864  -45.4816 C   0  0  0  0  0  0  0  0  0  0  0  0
  -35.9815    3.7491  -44.4308 N   0  0  0  0  0  0  0  0  0  0  0  0
  -37.0920    4.3445  -43.6830 C   0  0  0  0  0  0  0  0  0  0  0  0
  -36.5400    4.9017  -42.3646 C   0  0  0  0  0  0  0  0  0  0  0  0
  -35.3585    5.7331  -42.6354 N   0  0  0  0  0  0  0  0  0  0  0  0
  -34.2118    4.9085  -43.0540 C   0  0  0  0  0  0  0  0  0  0  0  0
  -34.6738    3.9895  -44.1597 C   0  0  0  0  0  0  0  0  0  0  0  0
  -33.9466    3.3104  -44.9946 N   0  0  0  0  0  0  0  0  0  0  0  0
  -34.9601    6.6926  -41.2772 X   0  0  0  0  0  0  0  0  0  0  0  0
  1  2  1  0  0  0  0
  2  3  2  0  0  0  0
  2 10  1  0  0  0  0
  3  4  1  0  0  0  0
  4  5  1  0  0  0  0
  4  9  1  0  0  0  0
  5  6  1  0  0  0  0
  6  7  1  0  0  0  0
  7  8  1  0  0  0  0
  7 11  1  0  0  0  0
  8  9  1  0  0  0  0
  9 10  2  0  0  0  0
M  END
> <Index>
10660

> <PropertyFieldDistance>
nan

$$$$
9173784
BBcorina  12272117083D 1   1.00000     0.00000 
CORINA 4.3.0 0026  30.10.2019
  9  9  0  0  0  0  0  0  0  0999 V2000
  -34.5409    6.1887  -43.4999 F   0  0  0  0  0  0  0  0  0  0  0  0
  -34.9087    5.0034  -42.8541 C   0  0  0  0  0  0  0  0  0  0  0  0
  -36.4203    5.0032  -42.5301 C   0  0  0  0  0  0  0  0  0  0  0  0
  -37.0792    4.2273  -43.6857 C   0  0  0  0  0  0  0  0  0  0  0  0
  -35.9999    3.8419  -44.6205 N   0  0  0  0  0  0  0  0  0  0  0  0
  -34.7583    3.7907  -43.8067 C   0  0  0  0  0  0  0  0  0  0  0  0
  -34.1137    4.8066  -41.6309 C   0  0  0  0  0  0  0  0  0  0  0  0
  -33.5003    4.6548  -40.6869 N   0  0  0  0  0  0  0  0  0  0  0  0
  -36.3244    2.3246  -45.3392 X   0  0  0  0  0  0  0  0  0  0  0  0
  1  2  1  0  0  0  0
  2  3  1  0  0  0  0
  2  6  1  0  0  0  0
  2  7  1  0  0  0  0
  3  4  1  0  0  0  0
  4  5  1  0  0  0  0
  5  6  1  0  0  0  0
  5  9  1  0  0  0  0
  7  8  3  0  0  0  0
M  END
> <Index>
10661

> <PropertyFieldDistance>
nan

$$$$
7343780
BBcorina  12272117083D 1   1.00000     0.00000 
CORINA 4.3.0 0026  30.10.2019
  8  9  0  0  0  0  0  0  0  0999 V2000
  -36.0003    3.7186  -44.2193 N   0  0  0  0  0  0  0  0  0  0  0  0
  -37.1883    4.5304  -43.8659 C   0  0  0  0  0  0  0  0  0  0  0  0
  -36.4751    4.7928  -42.5383 C   0  0  0  0  0  0  0  0  0  0  0  0
  -36.6680    6.1052  -41.7798 C   0  0  0  0  0  0  0  0  0  0  0  0
  -37.6359    5.3324  -40.8650 C   0  0  0  0  0  0  0  0  0  0  0  0
  -36.8780    4.0523  -41.2619 C   0  0  0  0  0  0  0  0  0  0  0  0
  -35.1640    4.4778  -43.2605 C   0  0  0  0  0  0  0  0  0  0  0  0
  -35.5108    4.0181  -45.8302 X   0  0  0  0  0  0  0  0  0  0  0  0
  1  2  1  0  0  0  0
  1  7  1  0  0  0  0
  1  8  1  0  0  0  0
  2  3  1  0  0  0  0
  3  4  1  0  0  0  0
  3  6  1  0  0  0  0
  3  7  1  0  0  0  0
  4  5  1  0  0  0  0
  5  6  1  0  0  0  0
M  END
> <Index>
10662

> <PropertyFieldDistance>
nan

$$$$
10337854
BBcorina  12272117083D 1   1.00000     0.00000 
CORINA 4.3.0 0026  30.10.2019
 12 12  0  0  0  0  0  0  0  0999 V2000
  -33.3534    7.8666  -42.2586 C   0  0  0  0  0  0  0  0  0  0  0  0
  -34.8780    7.1173  -41.6223 S   0  0  0  0  0  0  0  0  0  0  0  0
  -35.3833    6.0133  -42.9701 C   0  0  0  0  0  0  0  0  0  0  0  0
  -35.6536    6.8364  -44.2312 C   0  0  0  0  0  0  0  0  0  0  0  0
  -36.6650    7.8611  -43.9396 N   0  0  0  0  0  0  0  0  0  0  0  0
  -36.6554    5.2624  -42.5667 C   0  0  0  0  0  0  0  0  0  0  0  0
  -37.0433    4.2898  -43.6827 C   0  0  0  0  0  0  0  0  0  0  0  0
  -35.9453    3.3417  -43.9110 N   0  0  0  0  0  0  0  0  0  0  0  0
  -36.3354    2.3075  -44.8787 C   0  0  0  0  0  0  0  0  0  0  0  0
  -34.7262    4.0356  -44.3451 C   0  0  0  0  0  0  0  0  0  0  0  0
  -34.2691    5.0007  -43.2489 C   0  0  0  0  0  0  0  0  0  0  0  0
  -36.8850    8.9032  -45.2774 X   0  0  0  0  0  0  0  0  0  0  0  0
  1  2  1  0  0  0  0
  2  3  1  0  0  0  0
  3  4  1  0  0  0  0
  3  6  1  0  0  0  0
  3 11  1  0  0  0  0
  4  5  1  0  0  0  0
  5 12  1  0  0  0  0
  6  7  1  0  0  0  0
  7  8  1  0  0  0  0
  8  9  1  0  0  0  0
  8 10  1  0  0  0  0
 10 11  1  0  0  0  0
M  END
> <Index>
10672

> <PropertyFieldDistance>
nan

$$$$
7346988
BBcorina  12272117083D 1   1.00000     0.00000 
CORINA 4.3.0 0026  30.10.2019
 11 12  0  0  0  0  0  0  0  0999 V2000
  -34.6226    2.6687  -46.5743 N   0  0  0  0  0  0  0  0  0  0  0  0
  -35.3737    3.0297  -45.3645 C   0  0  0  0  0  0  0  0  0  0  0  0
  -35.5020    4.5533  -45.2764 C   0  0  0  0  0  0  0  0  0  0  0  0
  -36.2517    4.9269  -43.9956 C   0  0  0  0  0  0  0  0  0  0  0  0
  -35.5361    4.4282  -42.8619 O   0  0  0  0  0  0  0  0  0  0  0  0
  -35.3475    3.0146  -42.8724 C   0  0  0  0  0  0  0  0  0  0  0  0
  -36.6224    2.2250  -42.5487 C   0  0  0  0  0  0  0  0  0  0  0  0
  -36.2041    2.3130  -41.0709 C   0  0  0  0  0  0  0  0  0  0  0  0
  -34.7562    2.4614  -41.5695 C   0  0  0  0  0  0  0  0  0  0  0  0
  -34.6276    2.5195  -44.1261 C   0  0  0  0  0  0  0  0  0  0  0  0
  -35.6745    2.4376  -47.9025 X   0  0  0  0  0  0  0  0  0  0  0  0
  1  2  1  0  0  0  0
  1 11  1  0  0  0  0
  2  3  1  0  0  0  0
  2 10  1  0  0  0  0
  3  4  1  0  0  0  0
  4  5  1  0  0  0  0
  5  6  1  0  0  0  0
  6  7  1  0  0  0  0
  6  9  1  0  0  0  0
  6 10  1  0  0  0  0
  7  8  1  0  0  0  0
  8  9  1  0  0  0  0
M  END
> <Index>
10732

> <PropertyFieldDistance>
nan

$$$$
12865254
BBcorina  12272117083D 1   1.00000     0.00000 
CORINA 4.3.0 0026  30.10.2019
 11 12  0  0  0  0  0  0  0  0999 V2000
  -36.3418    2.3551  -44.9596 C   0  0  0  0  0  0  0  0  0  0  0  0
  -36.0212    3.6652  -44.3776 N   0  0  0  0  0  0  0  0  0  0  0  0
  -36.9478    3.9962  -43.2771 C   0  0  0  0  0  0  0  0  0  0  0  0
  -36.6579    5.3744  -42.6896 C   0  0  0  0  0  0  0  0  0  0  0  0
  -35.1831    5.5012  -42.2689 C   0  0  0  0  0  0  0  0  0  0  0  0
  -34.3450    5.1628  -43.4864 C   0  0  0  0  0  0  0  0  0  0  0  0
  -34.6610    3.6841  -43.8428 C   0  0  0  0  0  0  0  0  0  0  0  0
  -33.5487    3.3991  -44.8673 C   0  0  0  0  0  0  0  0  0  0  0  0
  -32.3419    4.1486  -44.2392 C   0  0  0  0  0  0  0  0  0  0  0  0
  -32.8948    5.1855  -43.3294 N   0  0  0  0  0  0  0  0  0  0  0  0
  -32.2619    6.7293  -43.7034 X   0  0  0  0  0  0  0  0  0  0  0  0
  1  2  1  0  0  0  0
  2  3  1  0  0  0  0
  2  7  1  0  0  0  0
  3  4  1  0  0  0  0
  4  5  1  0  0  0  0
  5  6  1  0  0  0  0
  6  7  1  0  0  0  0
  6 10  1  0  0  0  0
  7  8  1  0  0  0  0
  8  9  1  0  0  0  0
  9 10  1  0  0  0  0
 10 11  1  0  0  0  0
M  END
> <Index>
10735

> <PropertyFieldDistance>
nan

$$$$
9046184
BBcorina  12272117083D 1   1.00000     0.00000 
CORINA 4.3.0 0026  30.10.2019
 11 12  0  0  0  0  0  0  0  0999 V2000
  -35.0794    6.8678  -41.8191 N   0  0  0  0  0  0  0  0  0  0  0  0
  -35.4226    5.9593  -42.9213 C   0  0  0  0  0  0  0  0  0  0  0  0
  -36.6040    5.0768  -42.5077 C   0  0  0  0  0  0  0  0  0  0  0  0
  -37.1133    4.2998  -43.7267 C   0  0  0  0  0  0  0  0  0  0  0  0
  -35.9761    3.6455  -44.3781 N   0  0  0  0  0  0  0  0  0  0  0  0
  -36.0050    2.6239  -45.2800 C   0  0  0  0  0  0  0  0  0  0  0  0
  -34.7230    2.3506  -45.5969 C   0  0  0  0  0  0  0  0  0  0  0  0
  -33.9353    3.1932  -44.9091 N   0  0  0  0  0  0  0  0  0  0  0  0
  -34.6773    3.9721  -44.1776 C   0  0  0  0  0  0  0  0  0  0  0  0
  -34.2166    5.0695  -43.2476 C   0  0  0  0  0  0  0  0  0  0  0  0
  -34.5399    5.9949  -40.4511 X   0  0  0  0  0  0  0  0  0  0  0  0
  1  2  1  0  0  0  0
  1 11  1  0  0  0  0
  2  3  1  0  0  0  0
  2 10  1  0  0  0  0
  3  4  1  0  0  0  0
  4  5  1  0  0  0  0
  5  6  1  0  0  0  0
  5  9  1  0  0  0  0
  6  7  2  0  0  0  0
  7  8  1  0  0  0  0
  8  9  2  0  0  0  0
  9 10  1  0  0  0  0
M  END
> <Index>
10739

> <PropertyFieldDistance>
nan

$$$$
10212798
BBcorina  12272117083D 1   1.00000     0.00000 
CORINA 4.3.0 0026  30.10.2019
  9  9  0  0  0  0  0  0  0  0999 V2000
  -36.0173    3.5926  -44.4913 N   0  0  0  0  0  0  0  0  0  0  0  0
  -36.3933    2.1751  -44.5752 C   0  0  0  0  0  0  0  0  0  0  0  0
  -36.1059    1.6538  -45.9847 C   0  0  0  0  0  0  0  0  0  0  0  0
  -36.6220    0.2235  -46.1108 C   0  0  0  0  0  0  0  0  0  0  0  0
  -36.5958   -0.2336  -47.5663 C   0  0  0  0  0  0  0  0  0  0  0  0
  -35.1493   -0.4375  -48.0241 C   0  0  0  0  0  0  0  0  0  0  0  0
  -34.2801    1.1571  -47.9504 S   0  0  0  0  0  0  0  0  0  0  0  0
  -34.5971    1.6894  -46.2418 C   0  0  0  0  0  0  0  0  0  0  0  0
  -36.3231    4.2164  -42.9287 X   0  0  0  0  0  0  0  0  0  0  0  0
  1  2  1  0  0  0  0
  1  9  1  0  0  0  0
  2  3  1  0  0  0  0
  3  4  1  0  0  0  0
  3  8  1  0  0  0  0
  4  5  1  0  0  0  0
  5  6  1  0  0  0  0
  6  7  1  0  0  0  0
  7  8  1  0  0  0  0
M  END
> <Index>
10742

> <PropertyFieldDistance>
nan

$$$$
17609900
BBcorina  12272117083D 1   1.00000     0.00000 
CORINA 4.3.0 0026  30.10.2019
 10 11  0  0  0  0  0  0  0  0999 V2000
  -38.2013    2.8467  -41.1959 N   0  0  0  0  0  0  0  0  0  0  0  0
  -36.9885    3.5082  -41.6954 C   0  0  0  0  0  0  0  0  0  0  0  0
  -37.3432    4.7797  -42.4990 C   0  0  0  0  0  0  0  0  0  0  0  0
  -36.3266    4.8060  -43.6230 C   0  0  0  0  0  0  0  0  0  0  0  0
  -35.8131    5.6091  -44.5202 N   0  0  0  0  0  0  0  0  0  0  0  0
  -34.8978    4.9438  -45.2381 C   0  0  0  0  0  0  0  0  0  0  0  0
  -34.8398    3.6826  -44.7728 C   0  0  0  0  0  0  0  0  0  0  0  0
  -35.7481    3.5948  -43.7482 N   0  0  0  0  0  0  0  0  0  0  0  0
  -36.2887    2.6438  -42.7662 C   0  0  0  0  0  0  0  0  0  0  0  0
  -38.5111    3.2806  -39.5712 X   0  0  0  0  0  0  0  0  0  0  0  0
  1  2  1  0  0  0  0
  1 10  1  0  0  0  0
  2  3  1  0  0  0  0
  2  9  1  0  0  0  0
  3  4  1  0  0  0  0
  4  5  2  0  0  0  0
  4  8  1  0  0  0  0
  5  6  1  0  0  0  0
  6  7  2  0  0  0  0
  7  8  1  0  0  0  0
  8  9  1  0  0  0  0
M  END
> <Index>
10744

> <PropertyFieldDistance>
nan

$$$$
9082896
BBcorina  12272117083D 1   1.00000     0.00000 
CORINA 4.3.0 0026  30.10.2019
 13 14  0  0  0  0  0  0  0  0999 V2000
  -36.3611    2.4252  -45.0196 C   0  0  0  0  0  0  0  0  0  0  0  0
  -35.9530    3.3098  -43.9201 N   0  0  0  0  0  0  0  0  0  0  0  0
  -37.0212    4.2620  -43.5860 C   0  0  0  0  0  0  0  0  0  0  0  0
  -36.5888    5.1099  -42.3875 C   0  0  0  0  0  0  0  0  0  0  0  0
  -35.3417    5.8153  -42.7143 N   0  0  0  0  0  0  0  0  0  0  0  0
  -34.2734    4.8631  -43.0484 C   0  0  0  0  0  0  0  0  0  0  0  0
  -34.7059    4.0152  -44.2469 C   0  0  0  0  0  0  0  0  0  0  0  0
  -33.6288    3.0111  -44.5673 C   0  0  0  0  0  0  0  0  0  0  0  0
  -33.5888    1.7774  -44.1437 N   0  0  0  0  0  0  0  0  0  0  0  0
  -32.4893    1.1795  -44.6261 C   0  0  0  0  0  0  0  0  0  0  0  0
  -31.8226    2.0768  -45.3770 C   0  0  0  0  0  0  0  0  0  0  0  0
  -32.5481    3.2372  -45.3448 N   0  0  0  0  0  0  0  0  0  0  0  0
  -34.8667    6.8450  -41.4344 X   0  0  0  0  0  0  0  0  0  0  0  0
  1  2  1  0  0  0  0
  2  3  1  0  0  0  0
  2  7  1  0  0  0  0
  3  4  1  0  0  0  0
  4  5  1  0  0  0  0
  5  6  1  0  0  0  0
  5 13  1  0  0  0  0
  6  7  1  0  0  0  0
  7  8  1  0  0  0  0
  8  9  2  0  0  0  0
  8 12  1  0  0  0  0
  9 10  1  0  0  0  0
 10 11  2  0  0  0  0
 11 12  1  0  0  0  0
M  END
> <Index>
10747

> <PropertyFieldDistance>
nan

$$$$
13036670
BBcorina  12272117083D 1   1.00000     0.00000 
CORINA 4.3.0 0026  30.10.2019
  8  8  0  0  0  0  0  0  0  0999 V2000
  -35.5413    1.8761  -45.6858 C   0  0  0  0  0  0  0  0  0  0  0  0
  -35.0362    3.0493  -44.8436 C   0  0  0  0  0  0  0  0  0  0  0  0
  -34.2644    2.5259  -43.6197 C   0  0  0  0  0  0  0  0  0  0  0  0
  -35.0146    3.0374  -42.3725 C   0  0  0  0  0  0  0  0  0  0  0  0
  -35.7826    4.2851  -42.8772 C   0  0  0  0  0  0  0  0  0  0  0  0
  -36.2296    3.8606  -44.2982 C   0  0  0  0  0  0  0  0  0  0  0  0
  -36.9473    4.5638  -42.0266 N   0  0  0  0  0  0  0  0  0  0  0  0
  -37.9422    3.1810  -41.8774 X   0  0  0  0  0  0  0  0  0  0  0  0
  1  2  1  0  0  0  0
  2  3  1  0  0  0  0
  2  6  1  0  0  0  0
  3  4  1  0  0  0  0
  4  5  1  0  0  0  0
  5  6  1  0  0  0  0
  5  7  1  0  0  0  0
  7  8  1  0  0  0  0
M  END
> <Index>
10769

> <PropertyFieldDistance>
nan

$$$$
7107230
BBcorina  12272117083D 1   1.00000     0.00000 
CORINA 4.3.0 0026  30.10.2019
 12 12  0  0  0  0  0  0  0  0999 V2000
  -37.5269    0.6577  -44.9746 C   0  0  0  0  0  0  0  0  0  0  0  0
  -36.9397    1.8215  -45.7755 C   0  0  0  0  0  0  0  0  0  0  0  0
  -36.5778    1.3412  -47.1823 C   0  0  0  0  0  0  0  0  0  0  0  0
  -35.7014    2.3323  -45.0849 C   0  0  0  0  0  0  0  0  0  0  0  0
  -34.6270    1.8151  -45.3058 O   0  0  0  0  0  0  0  0  0  0  0  0
  -35.7880    3.3639  -44.2220 N   0  0  0  0  0  0  0  0  0  0  0  0
  -37.0321    4.0174  -43.7899 C   0  0  0  0  0  0  0  0  0  0  0  0
  -36.6442    5.1201  -42.7822 C   0  0  0  0  0  0  0  0  0  0  0  0
  -35.2507    4.6592  -42.2788 C   0  0  0  0  0  0  0  0  0  0  0  0
  -34.6505    4.0281  -43.5598 C   0  0  0  0  0  0  0  0  0  0  0  0
  -34.4477    5.8045  -41.8301 N   0  0  0  0  0  0  0  0  0  0  0  0
  -34.3843    7.0176  -43.0337 X   0  0  0  0  0  0  0  0  0  0  0  0
  1  2  1  0  0  0  0
  2  3  1  0  0  0  0
  2  4  1  0  0  0  0
  4  5  2  0  0  0  0
  4  6  1  0  0  0  0
  6  7  1  0  0  0  0
  6 10  1  0  0  0  0
  7  8  1  0  0  0  0
  8  9  1  0  0  0  0
  9 10  1  0  0  0  0
  9 11  1  0  0  0  0
 11 12  1  0  0  0  0
M  END
> <Index>
10772

> <PropertyFieldDistance>
nan

$$$$
7107500
BBcorina  12272117083D 1   1.00000     0.00000 
CORINA 4.3.0 0026  30.10.2019
 11 11  0  0  0  0  0  0  0  0999 V2000
  -33.5553    5.1662  -39.6287 C   0  0  0  0  0  0  0  0  0  0  0  0
  -33.5407    6.3006  -40.6553 C   0  0  0  0  0  0  0  0  0  0  0  0
  -33.1695    7.6123  -39.9606 C   0  0  0  0  0  0  0  0  0  0  0  0
  -34.9272    6.4334  -41.2883 C   0  0  0  0  0  0  0  0  0  0  0  0
  -35.2463    5.1684  -42.0875 C   0  0  0  0  0  0  0  0  0  0  0  0
  -36.6796    5.2477  -42.6204 C   0  0  0  0  0  0  0  0  0  0  0  0
  -36.9723    4.0084  -43.4693 C   0  0  0  0  0  0  0  0  0  0  0  0
  -36.0194    3.9412  -44.5845 N   0  0  0  0  0  0  0  0  0  0  0  0
  -34.6397    3.8168  -44.0973 C   0  0  0  0  0  0  0  0  0  0  0  0
  -34.2763    5.0495  -43.2662 C   0  0  0  0  0  0  0  0  0  0  0  0
  -36.4110    2.6614  -45.6490 X   0  0  0  0  0  0  0  0  0  0  0  0
  1  2  1  0  0  0  0
  2  3  1  0  0  0  0
  2  4  1  0  0  0  0
  4  5  1  0  0  0  0
  5  6  1  0  0  0  0
  5 10  1  0  0  0  0
  6  7  1  0  0  0  0
  7  8  1  0  0  0  0
  8  9  1  0  0  0  0
  8 11  1  0  0  0  0
  9 10  1  0  0  0  0
M  END
> <Index>
10773

> <PropertyFieldDistance>
nan

$$$$
7289908
BBcorina  12272117083D 1   1.00000     0.00000 
CORINA 4.3.0 0026  30.10.2019
 11 11  0  0  0  0  0  0  0  0999 V2000
  -32.8579    5.2112  -43.1112 C   0  0  0  0  0  0  0  0  0  0  0  0
  -34.3165    4.8517  -43.2313 C   0  0  0  0  0  0  0  0  0  0  0  0
  -35.2819    5.6003  -42.5422 C   0  0  0  0  0  0  0  0  0  0  0  0
  -36.6014    5.2608  -42.6619 C   0  0  0  0  0  0  0  0  0  0  0  0
  -37.5855    5.9920  -41.9850 N   0  0  0  0  0  0  0  0  0  0  0  0
  -36.9599    4.1675  -43.4808 C   0  0  0  0  0  0  0  0  0  0  0  0
  -38.1334    3.8543  -43.6025 O   0  0  0  0  0  0  0  0  0  0  0  0
  -36.0054    3.4684  -44.1240 N   0  0  0  0  0  0  0  0  0  0  0  0
  -36.3846    2.3327  -44.9683 C   0  0  0  0  0  0  0  0  0  0  0  0
  -34.6938    3.8079  -44.0034 C   0  0  0  0  0  0  0  0  0  0  0  0
  -37.1404    7.3183  -41.0016 X   0  0  0  0  0  0  0  0  0  0  0  0
  1  2  1  0  0  0  0
  2  3  1  0  0  0  0
  2 10  2  0  0  0  0
  3  4  2  0  0  0  0
  4  5  1  0  0  0  0
  4  6  1  0  0  0  0
  5 11  1  0  0  0  0
  6  7  2  0  0  0  0
  6  8  1  0  0  0  0
  8  9  1  0  0  0  0
  8 10  1  0  0  0  0
M  END
> <Index>
10781

> <PropertyFieldDistance>
nan

$$$$
7114908
BBcorina  12272117083D 1   1.00000     0.00000 
CORINA 4.3.0 0026  30.10.2019
 11 12  0  0  0  0  0  0  0  0999 V2000
  -35.6601    2.4164  -44.8822 C   0  0  0  0  0  0  0  0  0  0  0  0
  -36.3220    3.5550  -44.2405 N   0  0  0  0  0  0  0  0  0  0  0  0
  -37.6515    3.8568  -44.3283 C   0  0  0  0  0  0  0  0  0  0  0  0
  -37.8819    4.9742  -43.6034 C   0  0  0  0  0  0  0  0  0  0  0  0
  -36.6575    5.3708  -43.0532 C   0  0  0  0  0  0  0  0  0  0  0  0
  -36.3568    6.5502  -42.1630 C   0  0  0  0  0  0  0  0  0  0  0  0
  -34.9783    6.3200  -41.5274 C   0  0  0  0  0  0  0  0  0  0  0  0
  -34.0114    5.9464  -42.5691 N   0  0  0  0  0  0  0  0  0  0  0  0
  -34.2619    4.5859  -43.0745 C   0  0  0  0  0  0  0  0  0  0  0  0
  -35.7168    4.4852  -43.4610 C   0  0  0  0  0  0  0  0  0  0  0  0
  -32.4065    6.1029  -41.9999 X   0  0  0  0  0  0  0  0  0  0  0  0
  1  2  1  0  0  0  0
  2  3  1  0  0  0  0
  2 10  1  0  0  0  0
  3  4  2  0  0  0  0
  4  5  1  0  0  0  0
  5  6  1  0  0  0  0
  5 10  2  0  0  0  0
  6  7  1  0  0  0  0
  7  8  1  0  0  0  0
  8  9  1  0  0  0  0
  8 11  1  0  0  0  0
  9 10  1  0  0  0  0
M  END
> <Index>
10787

> <PropertyFieldDistance>
nan

$$$$
7119438
BBcorina  12272117083D 1   1.00000     0.00000 
CORINA 4.3.0 0026  30.10.2019
 13 14  0  0  0  0  0  0  0  0999 V2000
  -34.5359    2.3618  -46.6674 C   0  0  0  0  0  0  0  0  0  0  0  0
  -35.6661    1.8079  -45.9178 N   0  0  0  0  0  0  0  0  0  0  0  0
  -36.2614    0.5832  -46.1202 C   0  0  0  0  0  0  0  0  0  0  0  0
  -37.2566    0.4784  -45.2234 C   0  0  0  0  0  0  0  0  0  0  0  0
  -37.2775    1.5996  -44.4827 N   0  0  0  0  0  0  0  0  0  0  0  0
  -36.3246    2.4051  -44.8882 C   0  0  0  0  0  0  0  0  0  0  0  0
  -36.0410    3.6540  -44.3612 N   0  0  0  0  0  0  0  0  0  0  0  0
  -36.9587    3.9824  -43.2614 C   0  0  0  0  0  0  0  0  0  0  0  0
  -36.6646    5.3985  -42.7607 C   0  0  0  0  0  0  0  0  0  0  0  0
  -35.2658    5.4777  -42.3170 N   0  0  0  0  0  0  0  0  0  0  0  0
  -34.3481    5.1494  -43.4168 C   0  0  0  0  0  0  0  0  0  0  0  0
  -34.6422    3.7333  -43.9176 C   0  0  0  0  0  0  0  0  0  0  0  0
  -34.9157    7.0199  -41.6664 X   0  0  0  0  0  0  0  0  0  0  0  0
  1  2  1  0  0  0  0
  2  3  1  0  0  0  0
  2  6  1  0  0  0  0
  3  4  2  0  0  0  0
  4  5  1  0  0  0  0
  5  6  2  0  0  0  0
  6  7  1  0  0  0  0
  7  8  1  0  0  0  0
  7 12  1  0  0  0  0
  8  9  1  0  0  0  0
  9 10  1  0  0  0  0
 10 11  1  0  0  0  0
 10 13  1  0  0  0  0
 11 12  1  0  0  0  0
M  END
> <Index>
10798

> <PropertyFieldDistance>
nan

$$$$
12104204
BBcorina  12272117083D 1   1.00000     0.00000 
CORINA 4.3.0 0026  30.10.2019
 10 10  0  0  0  0  0  0  0  0999 V2000
  -34.1495   -1.0953  -46.8200 O   0  0  0  0  0  0  0  0  0  0  0  0
  -34.8167   -0.2711  -47.7779 C   0  0  0  0  0  0  0  0  0  0  0  0
  -36.3242   -0.3060  -47.5188 C   0  0  0  0  0  0  0  0  0  0  0  0
  -36.6116    0.2152  -46.1094 C   0  0  0  0  0  0  0  0  0  0  0  0
  -36.1059    1.6538  -45.9847 C   0  0  0  0  0  0  0  0  0  0  0  0
  -36.3933    2.1752  -44.5752 C   0  0  0  0  0  0  0  0  0  0  0  0
  -36.0173    3.5927  -44.4913 N   0  0  0  0  0  0  0  0  0  0  0  0
  -34.5983    1.6887  -46.2437 C   0  0  0  0  0  0  0  0  0  0  0  0
  -34.3109    1.1675  -47.6532 C   0  0  0  0  0  0  0  0  0  0  0  0
  -36.3231    4.2163  -42.9287 X   0  0  0  0  0  0  0  0  0  0  0  0
  1  2  1  0  0  0  0
  2  3  1  0  0  0  0
  2  9  1  0  0  0  0
  3  4  1  0  0  0  0
  4  5  1  0  0  0  0
  5  6  1  0  0  0  0
  5  8  1  0  0  0  0
  6  7  1  0  0  0  0
  7 10  1  0  0  0  0
  8  9  1  0  0  0  0
M  END
> <Index>
10803

> <PropertyFieldDistance>
nan

$$$$
7348542
BBcorina  12272117083D 1   1.00000     0.00000 
CORINA 4.3.0 0026  30.10.2019
 14 15  0  0  0  0  0  0  0  0999 V2000
  -38.0181    1.4743  -43.6047 O   0  0  0  0  0  0  0  0  0  0  0  0
  -37.3819    1.5550  -44.8041 C   0  0  0  0  0  0  0  0  0  0  0  0
  -37.7621    0.7292  -45.8485 C   0  0  0  0  0  0  0  0  0  0  0  0
  -37.1142    0.8125  -47.0678 C   0  0  0  0  0  0  0  0  0  0  0  0
  -36.0861    1.7186  -47.2478 C   0  0  0  0  0  0  0  0  0  0  0  0
  -35.7001    2.5465  -46.2099 C   0  0  0  0  0  0  0  0  0  0  0  0
  -36.3454    2.4690  -44.9848 C   0  0  0  0  0  0  0  0  0  0  0  0
  -35.9565    3.3059  -43.9326 N   0  0  0  0  0  0  0  0  0  0  0  0
  -37.0240    4.2578  -43.5947 C   0  0  0  0  0  0  0  0  0  0  0  0
  -36.5916    5.0990  -42.3914 C   0  0  0  0  0  0  0  0  0  0  0  0
  -35.3433    5.8046  -42.7135 N   0  0  0  0  0  0  0  0  0  0  0  0
  -34.2759    4.8527  -43.0514 C   0  0  0  0  0  0  0  0  0  0  0  0
  -34.7082    4.0115  -44.2546 C   0  0  0  0  0  0  0  0  0  0  0  0
  -34.8682    6.8272  -41.4279 X   0  0  0  0  0  0  0  0  0  0  0  0
  1  2  1  0  0  0  0
  2  3  2  0  0  0  0
  2  7  1  0  0  0  0
  3  4  1  0  0  0  0
  4  5  2  0  0  0  0
  5  6  1  0  0  0  0
  6  7  2  0  0  0  0
  7  8  1  0  0  0  0
  8  9  1  0  0  0  0
  8 13  1  0  0  0  0
  9 10  1  0  0  0  0
 10 11  1  0  0  0  0
 11 12  1  0  0  0  0
 11 14  1  0  0  0  0
 12 13  1  0  0  0  0
M  END
> <Index>
10804

> <PropertyFieldDistance>
nan

$$$$
11985500
BBcorina  12272117083D 1   1.00000     0.00000 
CORINA 4.3.0 0026  30.10.2019
 12 13  0  0  0  0  0  0  0  0999 V2000
  -35.9456    3.4707  -44.1792 N   0  0  0  0  0  0  0  0  0  0  0  0
  -37.0297    4.3791  -43.7897 C   0  0  0  0  0  0  0  0  0  0  0  0
  -36.6587    5.1223  -42.5013 C   0  0  0  0  0  0  0  0  0  0  0  0
  -35.3608    5.8908  -42.7396 C   0  0  0  0  0  0  0  0  0  0  0  0
  -34.9472    6.6439  -41.5676 N   0  0  0  0  0  0  0  0  0  0  0  0
  -33.6644    6.8217  -41.2346 C   0  0  0  0  0  0  0  0  0  0  0  0
  -33.4167    7.5308  -40.2824 O   0  0  0  0  0  0  0  0  0  0  0  0
  -32.5123    6.1976  -41.9661 C   0  0  0  0  0  0  0  0  0  0  0  0
  -32.9613    5.6726  -43.3337 C   0  0  0  0  0  0  0  0  0  0  0  0
  -34.2658    4.8997  -43.1409 C   0  0  0  0  0  0  0  0  0  0  0  0
  -34.6875    4.1918  -44.4266 C   0  0  0  0  0  0  0  0  0  0  0  0
  -36.3910    2.5320  -45.5374 X   0  0  0  0  0  0  0  0  0  0  0  0
  1  2  1  0  0  0  0
  1 11  1  0  0  0  0
  1 12  1  0  0  0  0
  2  3  1  0  0  0  0
  3  4  1  0  0  0  0
  4  5  1  0  0  0  0
  4 10  1  0  0  0  0
  5  6  1  0  0  0  0
  6  7  2  0  0  0  0
  6  8  1  0  0  0  0
  8  9  1  0  0  0  0
  9 10  1  0  0  0  0
 10 11  1  0  0  0  0
M  END
> <Index>
10809

> <PropertyFieldDistance>
nan

$$$$
7207618
BBcorina  12272117083D 1   1.00000     0.00000 
CORINA 4.3.0 0026  30.10.2019
 10 10  0  0  0  0  0  0  0  0999 V2000
  -38.3132    3.6018  -43.5406 C   0  0  0  0  0  0  0  0  0  0  0  0
  -37.0251    4.3874  -43.7948 C   0  0  0  0  0  0  0  0  0  0  0  0
  -36.6102    5.1169  -42.5143 C   0  0  0  0  0  0  0  0  0  0  0  0
  -35.3669    5.7881  -42.7356 O   0  0  0  0  0  0  0  0  0  0  0  0
  -34.3028    4.9155  -43.1246 C   0  0  0  0  0  0  0  0  0  0  0  0
  -33.0337    5.7346  -43.3686 C   0  0  0  0  0  0  0  0  0  0  0  0
  -32.6050    6.3260  -42.1403 O   0  0  0  0  0  0  0  0  0  0  0  0
  -34.6937    4.1830  -44.4109 C   0  0  0  0  0  0  0  0  0  0  0  0
  -35.9555    3.4608  -44.1932 N   0  0  0  0  0  0  0  0  0  0  0  0
  -36.4011    2.5725  -45.5847 X   0  0  0  0  0  0  0  0  0  0  0  0
  1  2  1  0  0  0  0
  2  3  1  0  0  0  0
  2  9  1  0  0  0  0
  3  4  1  0  0  0  0
  4  5  1  0  0  0  0
  5  6  1  0  0  0  0
  5  8  1  0  0  0  0
  6  7  1  0  0  0  0
  8  9  1  0  0  0  0
  9 10  1  0  0  0  0
M  END
> <Index>
10811

> <PropertyFieldDistance>
nan

$$$$
7283420
BBcorina  12272117083D 1   1.00000     0.00000 
CORINA 4.3.0 0026  30.10.2019
 12 13  0  0  0  0  0  0  0  0999 V2000
  -36.3342    2.3071  -44.8798 C   0  0  0  0  0  0  0  0  0  0  0  0
  -35.9429    3.3393  -43.9107 N   0  0  0  0  0  0  0  0  0  0  0  0
  -37.0417    4.2870  -43.6782 C   0  0  0  0  0  0  0  0  0  0  0  0
  -36.6538    5.2682  -42.5707 C   0  0  0  0  0  0  0  0  0  0  0  0
  -35.3785    6.0160  -42.9732 C   0  0  0  0  0  0  0  0  0  0  0  0
  -34.2710    4.9957  -43.2440 C   0  0  0  0  0  0  0  0  0  0  0  0
  -32.9971    5.7098  -43.6968 C   0  0  0  0  0  0  0  0  0  0  0  0
  -31.9523    4.7125  -43.9669 N   0  0  0  0  0  0  0  0  0  0  0  0
  -32.3489    3.7961  -45.0455 C   0  0  0  0  0  0  0  0  0  0  0  0
  -33.6137    3.0359  -44.6367 C   0  0  0  0  0  0  0  0  0  0  0  0
  -34.7311    4.0404  -44.3496 C   0  0  0  0  0  0  0  0  0  0  0  0
  -30.4608    5.4688  -44.3240 X   0  0  0  0  0  0  0  0  0  0  0  0
  1  2  1  0  0  0  0
  2  3  1  0  0  0  0
  2 11  1  0  0  0  0
  3  4  1  0  0  0  0
  4  5  1  0  0  0  0
  5  6  1  0  0  0  0
  6  7  1  0  0  0  0
  6 11  1  0  0  0  0
  7  8  1  0  0  0  0
  8  9  1  0  0  0  0
  8 12  1  0  0  0  0
  9 10  1  0  0  0  0
 10 11  1  0  0  0  0
M  END
> <Index>
10815

> <PropertyFieldDistance>
nan

$$$$
7291138
BBcorina  12272117083D 1   1.00000     0.00000 
CORINA 4.3.0 0026  30.10.2019
 14 15  0  0  0  0  0  0  0  0999 V2000
  -36.5874    6.5027  -43.7102 N   0  0  0  0  0  0  0  0  0  0  0  0
  -36.3934    5.3615  -42.8058 C   0  0  0  0  0  0  0  0  0  0  0  0
  -37.0783    4.0932  -43.3613 C   0  0  0  0  0  0  0  0  0  0  0  0
  -36.0436    3.3960  -44.1342 N   0  0  0  0  0  0  0  0  0  0  0  0
  -36.3148    2.3490  -45.1223 C   0  0  0  0  0  0  0  0  0  0  0  0
  -35.6174    1.0548  -44.6984 C   0  0  0  0  0  0  0  0  0  0  0  0
  -35.9005   -0.0387  -45.7305 C   0  0  0  0  0  0  0  0  0  0  0  0
  -35.3725    0.4011  -47.0975 C   0  0  0  0  0  0  0  0  0  0  0  0
  -36.0699    1.6953  -47.5213 C   0  0  0  0  0  0  0  0  0  0  0  0
  -35.7866    2.7888  -46.4893 C   0  0  0  0  0  0  0  0  0  0  0  0
  -34.8149    3.8376  -43.8148 C   0  0  0  0  0  0  0  0  0  0  0  0
  -33.7812    3.4232  -44.2951 O   0  0  0  0  0  0  0  0  0  0  0  0
  -34.9093    4.9289  -42.7713 C   0  0  0  0  0  0  0  0  0  0  0  0
  -36.0238    6.1404  -45.2836 X   0  0  0  0  0  0  0  0  0  0  0  0
  1  2  1  0  0  0  0
  1 14  1  0  0  0  0
  2  3  1  0  0  0  0
  2 13  1  0  0  0  0
  3  4  1  0  0  0  0
  4  5  1  0  0  0  0
  4 11  1  0  0  0  0
  5  6  1  0  0  0  0
  5 10  1  0  0  0  0
  6  7  1  0  0  0  0
  7  8  1  0  0  0  0
  8  9  1  0  0  0  0
  9 10  1  0  0  0  0
 11 12  2  0  0  0  0
 11 13  1  0  0  0  0
M  END
> <Index>
10834

> <PropertyFieldDistance>
nan

$$$$
7349738
BBcorina  12272117083D 1   1.00000     0.00000 
CORINA 4.3.0 0026  30.10.2019
 12 13  0  0  0  0  0  0  0  0999 V2000
  -36.8624    4.9810  -41.6732 N   0  0  0  0  0  0  0  0  0  0  0  0
  -36.0722    3.9720  -42.3911 C   0  0  0  0  0  0  0  0  0  0  0  0
  -36.5025    2.5707  -41.9470 C   0  0  0  0  0  0  0  0  0  0  0  0
  -35.7300    1.5270  -42.7577 C   0  0  0  0  0  0  0  0  0  0  0  0
  -35.9690    1.7345  -44.1508 O   0  0  0  0  0  0  0  0  0  0  0  0
  -35.5331    3.0117  -44.6316 C   0  0  0  0  0  0  0  0  0  0  0  0
  -34.0368    3.1721  -44.3394 C   0  0  0  0  0  0  0  0  0  0  0  0
  -33.2270    2.6304  -45.5461 C   0  0  0  0  0  0  0  0  0  0  0  0
  -34.2147    3.2882  -46.9519 S   0  0  0  0  0  0  0  0  0  0  0  0
  -35.8463    3.1053  -46.1359 C   0  0  0  0  0  0  0  0  0  0  0  0
  -36.3080    4.1137  -43.8977 C   0  0  0  0  0  0  0  0  0  0  0  0
  -38.5324    4.7882  -41.9863 X   0  0  0  0  0  0  0  0  0  0  0  0
  1  2  1  0  0  0  0
  1 12  1  0  0  0  0
  2  3  1  0  0  0  0
  2 11  1  0  0  0  0
  3  4  1  0  0  0  0
  4  5  1  0  0  0  0
  5  6  1  0  0  0  0
  6  7  1  0  0  0  0
  6 10  1  0  0  0  0
  6 11  1  0  0  0  0
  7  8  1  0  0  0  0
  8  9  1  0  0  0  0
  9 10  1  0  0  0  0
M  END
> <Index>
10850

> <PropertyFieldDistance>
nan

$$$$
7866926
BBcorina  12272117083D 1   1.00000     0.00000 
CORINA 4.3.0 0026  30.10.2019
 11 11  0  0  0  0  0  0  0  0999 V2000
  -38.7761    5.0957  -40.9570 C   0  0  0  0  0  0  0  0  0  0  0  0
  -37.0422    4.5642  -40.9163 S   0  0  0  0  0  0  0  0  0  0  0  0
  -36.4313    5.0387  -42.5571 C   0  0  0  0  0  0  0  0  0  0  0  0
  -37.0720    4.1506  -43.6453 C   0  0  0  0  0  0  0  0  0  0  0  0
  -35.9864    3.9297  -44.6351 N   0  0  0  0  0  0  0  0  0  0  0  0
  -34.7681    3.7441  -43.8055 C   0  0  0  0  0  0  0  0  0  0  0  0
  -34.9157    4.7713  -42.6624 C   0  0  0  0  0  0  0  0  0  0  0  0
  -34.2008    6.0108  -42.9948 N   0  0  0  0  0  0  0  0  0  0  0  0
  -32.7471    5.7996  -42.9826 C   0  0  0  0  0  0  0  0  0  0  0  0
  -34.6444    6.5433  -44.2901 C   0  0  0  0  0  0  0  0  0  0  0  0
  -36.2971    2.5430  -45.5862 X   0  0  0  0  0  0  0  0  0  0  0  0
  1  2  1  0  0  0  0
  2  3  1  0  0  0  0
  3  4  1  0  0  0  0
  3  7  1  0  0  0  0
  4  5  1  0  0  0  0
  5  6  1  0  0  0  0
  5 11  1  0  0  0  0
  6  7  1  0  0  0  0
  7  8  1  0  0  0  0
  8  9  1  0  0  0  0
  8 10  1  0  0  0  0
M  END
> <Index>
10868

> <PropertyFieldDistance>
nan

$$$$
7632526
BBcorina  12272117083D 1   1.00000     0.00000 
CORINA 4.3.0 0026  30.10.2019
 12 13  0  0  0  0  0  0  0  0999 V2000
  -36.0191    3.9414  -44.5845 N   0  0  0  0  0  0  0  0  0  0  0  0
  -36.9723    4.0087  -43.4695 C   0  0  0  0  0  0  0  0  0  0  0  0
  -36.6793    5.2476  -42.6202 C   0  0  0  0  0  0  0  0  0  0  0  0
  -35.2462    5.1676  -42.0870 C   0  0  0  0  0  0  0  0  0  0  0  0
  -34.2770    5.0496  -43.2665 C   0  0  0  0  0  0  0  0  0  0  0  0
  -34.6396    3.8164  -44.0970 C   0  0  0  0  0  0  0  0  0  0  0  0
  -34.9403    6.3786  -41.3214 N   0  0  0  0  0  0  0  0  0  0  0  0
  -34.4923    7.5482  -41.8332 C   0  0  0  0  0  0  0  0  0  0  0  0
  -34.3459    8.3883  -40.7822 C   0  0  0  0  0  0  0  0  0  0  0  0
  -34.6993    7.6982  -39.6922 N   0  0  0  0  0  0  0  0  0  0  0  0
  -35.0464    6.5110  -40.0454 N   0  0  0  0  0  0  0  0  0  0  0  0
  -36.4111    2.6621  -45.6494 X   0  0  0  0  0  0  0  0  0  0  0  0
  1  2  1  0  0  0  0
  1  6  1  0  0  0  0
  1 12  1  0  0  0  0
  2  3  1  0  0  0  0
  3  4  1  0  0  0  0
  4  5  1  0  0  0  0
  4  7  1  0  0  0  0
  5  6  1  0  0  0  0
  7  8  1  0  0  0  0
  7 11  1  0  0  0  0
  8  9  2  0  0  0  0
  9 10  1  0  0  0  0
 10 11  2  0  0  0  0
M  END
> <Index>
10880

> <PropertyFieldDistance>
nan

$$$$
7691908
BBcorina  12272117083D 1   1.00000     0.00000 
CORINA 4.3.0 0026  30.10.2019
  9 10  0  0  0  0  0  0  0  0999 V2000
  -35.9723    3.6928  -44.4164 N   0  0  0  0  0  0  0  0  0  0  0  0
  -36.7659    3.8639  -43.1695 C   0  0  0  0  0  0  0  0  0  0  0  0
  -36.9022    5.3889  -42.9975 C   0  0  0  0  0  0  0  0  0  0  0  0
  -35.7286    5.9895  -43.8002 C   0  0  0  0  0  0  0  0  0  0  0  0
  -34.9341    4.7530  -44.2969 C   0  0  0  0  0  0  0  0  0  0  0  0
  -34.0128    4.3650  -43.1574 C   0  0  0  0  0  0  0  0  0  0  0  0
  -34.5039    3.6982  -42.1298 C   0  0  0  0  0  0  0  0  0  0  0  0
  -35.9430    3.2818  -42.0176 C   0  0  0  0  0  0  0  0  0  0  0  0
  -36.9450    3.9408  -45.8008 X   0  0  0  0  0  0  0  0  0  0  0  0
  1  2  1  0  0  0  0
  1  5  1  0  0  0  0
  1  9  1  0  0  0  0
  2  3  1  0  0  0  0
  2  8  1  0  0  0  0
  3  4  1  0  0  0  0
  4  5  1  0  0  0  0
  5  6  1  0  0  0  0
  6  7  2  0  0  0  0
  7  8  1  0  0  0  0
M  END
> <Index>
10914

> <PropertyFieldDistance>
nan

$$$$
7764226
BBcorina  12272117083D 1   1.00000     0.00000 
CORINA 4.3.0 0026  30.10.2019
 13 14  0  0  0  0  0  0  0  0999 V2000
  -36.0191    3.9414  -44.5846 N   0  0  0  0  0  0  0  0  0  0  0  0
  -36.9723    4.0087  -43.4694 C   0  0  0  0  0  0  0  0  0  0  0  0
  -36.6793    5.2476  -42.6202 C   0  0  0  0  0  0  0  0  0  0  0  0
  -35.2462    5.1676  -42.0870 C   0  0  0  0  0  0  0  0  0  0  0  0
  -34.9268    6.4323  -41.2874 C   0  0  0  0  0  0  0  0  0  0  0  0
  -33.6006    6.3033  -40.6785 N   0  0  0  0  0  0  0  0  0  0  0  0
  -32.5738    7.1725  -40.8233 C   0  0  0  0  0  0  0  0  0  0  0  0
  -31.5489    6.6699  -40.0961 C   0  0  0  0  0  0  0  0  0  0  0  0
  -31.9929    5.5326  -39.5492 N   0  0  0  0  0  0  0  0  0  0  0  0
  -33.2120    5.3437  -39.9137 N   0  0  0  0  0  0  0  0  0  0  0  0
  -34.2769    5.0496  -43.2665 C   0  0  0  0  0  0  0  0  0  0  0  0
  -34.6396    3.8164  -44.0970 C   0  0  0  0  0  0  0  0  0  0  0  0
  -36.4111    2.6622  -45.6494 X   0  0  0  0  0  0  0  0  0  0  0  0
  1  2  1  0  0  0  0
  1 12  1  0  0  0  0
  1 13  1  0  0  0  0
  2  3  1  0  0  0  0
  3  4  1  0  0  0  0
  4  5  1  0  0  0  0
  4 11  1  0  0  0  0
  5  6  1  0  0  0  0
  6  7  1  0  0  0  0
  6 10  1  0  0  0  0
  7  8  2  0  0  0  0
  8  9  1  0  0  0  0
  9 10  2  0  0  0  0
 11 12  1  0  0  0  0
M  END
> <Index>
10918

> <PropertyFieldDistance>
nan

$$$$
17781870
BBcorina  12272117083D 1   1.00000     0.00000 
CORINA 4.3.0 0026  30.10.2019
 13 13  0  0  0  0  0  0  0  0999 V2000
  -38.4197    0.7710  -47.2346 C   0  0  0  0  0  0  0  0  0  0  0  0
  -37.2352    0.8480  -46.3983 O   0  0  0  0  0  0  0  0  0  0  0  0
  -36.9898    2.0222  -45.7960 C   0  0  0  0  0  0  0  0  0  0  0  0
  -37.7400    2.9547  -45.9620 O   0  0  0  0  0  0  0  0  0  0  0  0
  -35.7788    2.1774  -44.9126 C   0  0  0  0  0  0  0  0  0  0  0  0
  -35.7355    3.5444  -44.3767 N   0  0  0  0  0  0  0  0  0  0  0  0
  -36.8670    3.7918  -43.4739 C   0  0  0  0  0  0  0  0  0  0  0  0
  -36.8717    5.2625  -43.0508 C   0  0  0  0  0  0  0  0  0  0  0  0
  -35.5519    5.5912  -42.3473 C   0  0  0  0  0  0  0  0  0  0  0  0
  -34.3877    5.2783  -43.2915 C   0  0  0  0  0  0  0  0  0  0  0  0
  -34.4550    3.8072  -43.7075 C   0  0  0  0  0  0  0  0  0  0  0  0
  -33.1156    5.5358  -42.6035 N   0  0  0  0  0  0  0  0  0  0  0  0
  -32.6047    7.1498  -42.8436 X   0  0  0  0  0  0  0  0  0  0  0  0
  1  2  1  0  0  0  0
  2  3  1  0  0  0  0
  3  4  2  0  0  0  0
  3  5  1  0  0  0  0
  5  6  1  0  0  0  0
  6  7  1  0  0  0  0
  6 11  1  0  0  0  0
  7  8  1  0  0  0  0
  8  9  1  0  0  0  0
  9 10  1  0  0  0  0
 10 11  1  0  0  0  0
 10 12  1  0  0  0  0
 12 13  1  0  0  0  0
M  END
> <Index>
10944

> <PropertyFieldDistance>
nan

$$$$
7793588
BBcorina  12272117083D 1   1.00000     0.00000 
CORINA 4.3.0 0026  30.10.2019
 12 12  0  0  0  0  0  0  0  0999 V2000
  -32.2575    6.8544  -41.2518 C   0  0  0  0  0  0  0  0  0  0  0  0
  -33.0300    6.3125  -42.3777 N   0  0  0  0  0  0  0  0  0  0  0  0
  -34.4029    5.9893  -41.9670 C   0  0  0  0  0  0  0  0  0  0  0  0
  -35.1745    5.4289  -43.1634 C   0  0  0  0  0  0  0  0  0  0  0  0
  -36.6454    5.1173  -42.7801 C   0  0  0  0  0  0  0  0  0  0  0  0
  -37.0333    4.0032  -43.7750 C   0  0  0  0  0  0  0  0  0  0  0  0
  -35.7863    3.3739  -44.2336 N   0  0  0  0  0  0  0  0  0  0  0  0
  -34.6499    4.0247  -43.5541 C   0  0  0  0  0  0  0  0  0  0  0  0
  -35.6960    2.3684  -45.1265 C   0  0  0  0  0  0  0  0  0  0  0  0
  -34.6095    1.9244  -45.4320 O   0  0  0  0  0  0  0  0  0  0  0  0
  -36.9451    1.7957  -45.7451 C   0  0  0  0  0  0  0  0  0  0  0  0
  -32.2541    4.9458  -43.0516 X   0  0  0  0  0  0  0  0  0  0  0  0
  1  2  1  0  0  0  0
  2  3  1  0  0  0  0
  2 12  1  0  0  0  0
  3  4  1  0  0  0  0
  4  5  1  0  0  0  0
  4  8  1  0  0  0  0
  5  6  1  0  0  0  0
  6  7  1  0  0  0  0
  7  8  1  0  0  0  0
  7  9  1  0  0  0  0
  9 10  2  0  0  0  0
  9 11  1  0  0  0  0
M  END
> <Index>
10962

> <PropertyFieldDistance>
nan

$$$$
12105632
BBcorina  12272117083D 1   1.00000     0.00000 
CORINA 4.3.0 0026  30.10.2019
  9 10  0  0  0  0  0  0  0  0999 V2000
  -33.6655    3.5151  -41.2128 O   0  0  0  0  0  0  0  0  0  0  0  0
  -34.6946    4.4970  -41.3509 C   0  0  0  0  0  0  0  0  0  0  0  0
  -36.1098    3.8998  -41.4121 C   0  0  0  0  0  0  0  0  0  0  0  0
  -36.4272    4.9422  -42.4947 C   0  0  0  0  0  0  0  0  0  0  0  0
  -37.0905    4.3532  -43.7485 C   0  0  0  0  0  0  0  0  0  0  0  0
  -36.0103    3.7229  -44.5573 N   0  0  0  0  0  0  0  0  0  0  0  0
  -34.7297    3.8447  -43.8425 C   0  0  0  0  0  0  0  0  0  0  0  0
  -34.9092    4.9659  -42.8015 C   0  0  0  0  0  0  0  0  0  0  0  0
  -36.3835    2.0839  -44.8709 X   0  0  0  0  0  0  0  0  0  0  0  0
  1  2  1  0  0  0  0
  2  3  1  0  0  0  0
  2  8  1  0  0  0  0
  3  4  1  0  0  0  0
  4  5  1  0  0  0  0
  4  8  1  0  0  0  0
  5  6  1  0  0  0  0
  6  7  1  0  0  0  0
  6  9  1  0  0  0  0
  7  8  1  0  0  0  0
M  END
> <Index>
10971

> <PropertyFieldDistance>
nan

$$$$
7914122
BBcorina  12272117083D 1   1.00000     0.00000 
CORINA 4.3.0 0026  30.10.2019
  9  9  0  0  0  0  0  0  0  0999 V2000
  -38.4122    6.2120  -41.7130 C   0  0  0  0  0  0  0  0  0  0  0  0
  -36.9018    6.2090  -41.9570 C   0  0  0  0  0  0  0  0  0  0  0  0
  -36.4668    4.8260  -42.4455 C   0  0  0  0  0  0  0  0  0  0  0  0
  -37.0115    4.5513  -43.8698 C   0  0  0  0  0  0  0  0  0  0  0  0
  -36.0585    3.5377  -44.4035 N   0  0  0  0  0  0  0  0  0  0  0  0
  -34.7209    3.9482  -43.9243 C   0  0  0  0  0  0  0  0  0  0  0  0
  -34.9341    4.7718  -42.6406 C   0  0  0  0  0  0  0  0  0  0  0  0
  -34.4080    6.0903  -42.8041 O   0  0  0  0  0  0  0  0  0  0  0  0
  -36.1093    3.4900  -46.1122 X   0  0  0  0  0  0  0  0  0  0  0  0
  1  2  1  0  0  0  0
  2  3  1  0  0  0  0
  3  4  1  0  0  0  0
  3  7  1  0  0  0  0
  4  5  1  0  0  0  0
  5  6  1  0  0  0  0
  5  9  1  0  0  0  0
  6  7  1  0  0  0  0
  7  8  1  0  0  0  0
M  END
> <Index>
10972

> <PropertyFieldDistance>
nan

$$$$
14947600
BBcorina  12272117083D 1   1.00000     0.00000 
CORINA 4.3.0 0026  30.10.2019
 11 12  0  0  0  0  0  0  0  0999 V2000
  -36.0267    3.7080  -44.5478 N   0  0  0  0  0  0  0  0  0  0  0  0
  -37.0986    4.3730  -43.7542 C   0  0  0  0  0  0  0  0  0  0  0  0
  -36.4001    4.9147  -42.5193 C   0  0  0  0  0  0  0  0  0  0  0  0
  -37.0340    6.0041  -41.7166 C   0  0  0  0  0  0  0  0  0  0  0  0
  -36.4308    5.8648  -40.2709 C   0  0  0  0  0  0  0  0  0  0  0  0
  -35.2060    6.7551  -40.1186 C   0  0  0  0  0  0  0  0  0  0  0  0
  -34.2302    6.7565  -41.2888 C   0  0  0  0  0  0  0  0  0  0  0  0
  -33.9896    5.3285  -41.8155 C   0  0  0  0  0  0  0  0  0  0  0  0
  -34.9745    5.0839  -42.9230 C   0  0  0  0  0  0  0  0  0  0  0  0
  -34.7323    3.8673  -43.8217 C   0  0  0  0  0  0  0  0  0  0  0  0
  -36.3876    2.0560  -44.8019 X   0  0  0  0  0  0  0  0  0  0  0  0
  1  2  1  0  0  0  0
  1 10  1  0  0  0  0
  1 11  1  0  0  0  0
  2  3  1  0  0  0  0
  3  4  1  0  0  0  0
  3  9  1  0  0  0  0
  4  5  1  0  0  0  0
  5  6  1  0  0  0  0
  6  7  1  0  0  0  0
  7  8  1  0  0  0  0
  8  9  1  0  0  0  0
  9 10  1  0  0  0  0
M  END
> <Index>
10973

> <PropertyFieldDistance>
nan

$$$$
15733436
BBcorina  12272117083D 1   1.00000     0.00000 
CORINA 4.3.0 0026  30.10.2019
 10 11  0  0  0  0  0  0  0  0999 V2000
  -35.2052    3.6468  -41.4226 O   0  0  0  0  0  0  0  0  0  0  0  0
  -35.2423    4.9570  -41.9920 C   0  0  0  0  0  0  0  0  0  0  0  0
  -34.3190    5.0517  -43.2372 C   0  0  0  0  0  0  0  0  0  0  0  0
  -34.8561    6.2927  -43.9888 C   0  0  0  0  0  0  0  0  0  0  0  0
  -36.3393    6.4215  -43.5959 C   0  0  0  0  0  0  0  0  0  0  0  0
  -36.6292    5.2522  -42.6252 C   0  0  0  0  0  0  0  0  0  0  0  0
  -36.9844    4.0246  -43.4839 C   0  0  0  0  0  0  0  0  0  0  0  0
  -36.0197    3.9144  -44.5852 N   0  0  0  0  0  0  0  0  0  0  0  0
  -34.6349    3.8207  -44.1063 C   0  0  0  0  0  0  0  0  0  0  0  0
  -36.4048    2.5994  -45.6080 X   0  0  0  0  0  0  0  0  0  0  0  0
  1  2  1  0  0  0  0
  2  3  1  0  0  0  0
  2  6  1  0  0  0  0
  3  4  1  0  0  0  0
  3  9  1  0  0  0  0
  4  5  1  0  0  0  0
  5  6  1  0  0  0  0
  6  7  1  0  0  0  0
  7  8  1  0  0  0  0
  8  9  1  0  0  0  0
  8 10  1  0  0  0  0
M  END
> <Index>
10974

> <PropertyFieldDistance>
nan

$$$$
12525382
BBcorina  12272117083D 1   1.00000     0.00000 
CORINA 4.3.0 0026  30.10.2019
 11 12  0  0  0  0  0  0  0  0999 V2000
  -38.2274    5.4112  -44.1307 C   0  0  0  0  0  0  0  0  0  0  0  0
  -37.1461    5.3817  -43.0487 C   0  0  0  0  0  0  0  0  0  0  0  0
  -36.5078    3.9844  -42.9966 C   0  0  0  0  0  0  0  0  0  0  0  0
  -35.2365    4.0775  -42.1216 C   0  0  0  0  0  0  0  0  0  0  0  0
  -34.1101    4.4607  -43.1290 C   0  0  0  0  0  0  0  0  0  0  0  0
  -34.8167    4.5591  -44.5006 C   0  0  0  0  0  0  0  0  0  0  0  0
  -35.3320    5.9982  -44.6619 C   0  0  0  0  0  0  0  0  0  0  0  0
  -36.0610    6.4104  -43.3798 C   0  0  0  0  0  0  0  0  0  0  0  0
  -36.6629    7.6929  -43.5667 O   0  0  0  0  0  0  0  0  0  0  0  0
  -36.0066    3.6777  -44.3628 N   0  0  0  0  0  0  0  0  0  0  0  0
  -35.5682    2.0305  -44.4992 X   0  0  0  0  0  0  0  0  0  0  0  0
  1  2  1  0  0  0  0
  2  3  1  0  0  0  0
  2  8  1  0  0  0  0
  3  4  1  0  0  0  0
  3 10  1  0  0  0  0
  4  5  1  0  0  0  0
  5  6  1  0  0  0  0
  6  7  1  0  0  0  0
  6 10  1  0  0  0  0
  7  8  1  0  0  0  0
  8  9  1  0  0  0  0
 10 11  1  0  0  0  0
M  END
> <Index>
10975

> <PropertyFieldDistance>
nan

$$$$
17848890
BBcorina  12272117083D 1   1.00000     0.00000 
CORINA 4.3.0 0026  30.10.2019
  8  9  0  0  0  0  0  0  0  0999 V2000
  -35.1160    1.7476  -45.3730 N   0  0  0  0  0  0  0  0  0  0  0  0
  -35.2026    3.1088  -44.8276 C   0  0  0  0  0  0  0  0  0  0  0  0
  -36.6893    3.5127  -44.5251 C   0  0  0  0  0  0  0  0  0  0  0  0
  -36.5798    3.7114  -42.9746 C   0  0  0  0  0  0  0  0  0  0  0  0
  -35.7325    2.4911  -42.5325 C   0  0  0  0  0  0  0  0  0  0  0  0
  -34.6270    3.1809  -43.3719 C   0  0  0  0  0  0  0  0  0  0  0  0
  -35.2314    4.4477  -42.6935 C   0  0  0  0  0  0  0  0  0  0  0  0
  -33.5976    1.4790  -46.1120 X   0  0  0  0  0  0  0  0  0  0  0  0
  1  2  1  0  0  0  0
  1  8  1  0  0  0  0
  2  3  1  0  0  0  0
  2  6  1  0  0  0  0
  3  4  1  0  0  0  0
  4  5  1  0  0  0  0
  4  7  1  0  0  0  0
  5  6  1  0  0  0  0
  6  7  1  0  0  0  0
M  END
> <Index>
10980

> <PropertyFieldDistance>
nan

$$$$
13038552
BBcorina  12272117083D 1   1.00000     0.00000 
CORINA 4.3.0 0026  30.10.2019
 10 10  0  0  0  0  0  0  0  0999 V2000
  -36.3235    2.2515  -44.8151 C   0  0  0  0  0  0  0  0  0  0  0  0
  -36.0633    3.6522  -44.4568 N   0  0  0  0  0  0  0  0  0  0  0  0
  -37.1161    4.1738  -43.5592 C   0  0  0  0  0  0  0  0  0  0  0  0
  -36.3825    5.1681  -42.6251 C   0  0  0  0  0  0  0  0  0  0  0  0
  -37.0810    5.3184  -41.3875 O   0  0  0  0  0  0  0  0  0  0  0  0
  -35.0181    4.4551  -42.4131 C   0  0  0  0  0  0  0  0  0  0  0  0
  -34.7597    3.7917  -43.7822 C   0  0  0  0  0  0  0  0  0  0  0  0
  -34.1273    2.4130  -43.5814 C   0  0  0  0  0  0  0  0  0  0  0  0
  -32.7934    2.5682  -42.9862 N   0  0  0  0  0  0  0  0  0  0  0  0
  -32.1087    1.0466  -42.6118 X   0  0  0  0  0  0  0  0  0  0  0  0
  1  2  1  0  0  0  0
  2  3  1  0  0  0  0
  2  7  1  0  0  0  0
  3  4  1  0  0  0  0
  4  5  1  0  0  0  0
  4  6  1  0  0  0  0
  6  7  1  0  0  0  0
  7  8  1  0  0  0  0
  8  9  1  0  0  0  0
  9 10  1  0  0  0  0
M  END
> <Index>
10984

> <PropertyFieldDistance>
nan

$$$$
9786936
BBcorina  12272117083D 1   1.00000     0.00000 
CORINA 4.3.0 0026  30.10.2019
  8  9  0  0  0  0  0  0  0  0999 V2000
  -34.9095    1.8920  -41.8667 N   0  0  0  0  0  0  0  0  0  0  0  0
  -35.6934    2.4141  -42.9941 C   0  0  0  0  0  0  0  0  0  0  0  0
  -35.0394    2.0147  -44.3401 C   0  0  0  0  0  0  0  0  0  0  0  0
  -35.5787    3.0937  -45.3140 C   0  0  0  0  0  0  0  0  0  0  0  0
  -35.5954    4.3886  -44.4758 C   0  0  0  0  0  0  0  0  0  0  0  0
  -36.8428    4.6959  -43.6448 C   0  0  0  0  0  0  0  0  0  0  0  0
  -35.6684    3.9565  -43.0007 C   0  0  0  0  0  0  0  0  0  0  0  0
  -33.3216    2.5265  -41.8785 X   0  0  0  0  0  0  0  0  0  0  0  0
  1  2  1  0  0  0  0
  1  8  1  0  0  0  0
  2  3  1  0  0  0  0
  2  7  1  0  0  0  0
  3  4  1  0  0  0  0
  4  5  1  0  0  0  0
  5  6  1  0  0  0  0
  5  7  1  0  0  0  0
  6  7  1  0  0  0  0
M  END
> <Index>
10985

> <PropertyFieldDistance>
nan

$$$$
16928604
BBcorina  12272117083D 1   1.00000     0.00000 
CORINA 4.3.0 0026  30.10.2019
  9 10  0  0  0  0  0  0  0  0999 V2000
  -34.3157    3.6929  -41.8455 N   0  0  0  0  0  0  0  0  0  0  0  0
  -35.1625    2.8048  -42.6531 C   0  0  0  0  0  0  0  0  0  0  0  0
  -34.4198    2.3654  -43.9387 C   0  0  0  0  0  0  0  0  0  0  0  0
  -35.3089    2.9269  -45.0936 C   0  0  0  0  0  0  0  0  0  0  0  0
  -35.7826    4.2830  -44.4535 C   0  0  0  0  0  0  0  0  0  0  0  0
  -36.4114    3.5759  -43.1975 C   0  0  0  0  0  0  0  0  0  0  0  0
  -37.2445    2.4946  -43.8964 C   0  0  0  0  0  0  0  0  0  0  0  0
  -36.6093    2.1206  -44.9890 C   0  0  0  0  0  0  0  0  0  0  0  0
  -33.6799    4.9645  -42.7956 X   0  0  0  0  0  0  0  0  0  0  0  0
  1  2  1  0  0  0  0
  1  9  1  0  0  0  0
  2  3  1  0  0  0  0
  2  6  1  0  0  0  0
  3  4  1  0  0  0  0
  4  5  1  0  0  0  0
  4  8  1  0  0  0  0
  5  6  1  0  0  0  0
  6  7  1  0  0  0  0
  7  8  2  0  0  0  0
M  END
> <Index>
10987

> <PropertyFieldDistance>
nan

$$$$
13779872
BBcorina  12272117083D 1   1.00000     0.00000 
CORINA 4.3.0 0026  30.10.2019
  9  9  0  0  0  0  0  0  0  0999 V2000
  -36.7661    3.7604  -41.4408 C   0  0  0  0  0  0  0  0  0  0  0  0
  -36.4847    4.8060  -42.5217 C   0  0  0  0  0  0  0  0  0  0  0  0
  -36.6370    6.2461  -42.0277 C   0  0  0  0  0  0  0  0  0  0  0  0
  -37.1759    4.5244  -43.8645 C   0  0  0  0  0  0  0  0  0  0  0  0
  -36.0032    3.7114  -44.2373 N   0  0  0  0  0  0  0  0  0  0  0  0
  -35.2023    4.5496  -43.3257 C   0  0  0  0  0  0  0  0  0  0  0  0
  -34.1428    3.7652  -42.5492 C   0  0  0  0  0  0  0  0  0  0  0  0
  -32.9577    3.6541  -43.3400 O   0  0  0  0  0  0  0  0  0  0  0  0
  -35.5617    3.9836  -45.8667 X   0  0  0  0  0  0  0  0  0  0  0  0
  1  2  1  0  0  0  0
  2  3  1  0  0  0  0
  2  4  1  0  0  0  0
  2  6  1  0  0  0  0
  4  5  1  0  0  0  0
  5  6  1  0  0  0  0
  5  9  1  0  0  0  0
  6  7  1  0  0  0  0
  7  8  1  0  0  0  0
M  END
> <Index>
10989

> <PropertyFieldDistance>
nan

$$$$
8964248
BBcorina  12272117083D 1   1.00000     0.00000 
CORINA 4.3.0 0026  30.10.2019
  9  9  0  0  0  0  0  0  0  0999 V2000
  -32.6846    5.3521  -43.9269 C   0  0  0  0  0  0  0  0  0  0  0  0
  -34.1865    5.2246  -43.6640 C   0  0  0  0  0  0  0  0  0  0  0  0
  -34.4944    5.6331  -42.2081 C   0  0  0  0  0  0  0  0  0  0  0  0
  -35.9049    5.9491  -42.0113 C   0  0  0  0  0  0  0  0  0  0  0  0
  -36.8195    4.7427  -42.3102 C   0  0  0  0  0  0  0  0  0  0  0  0
  -36.9707    4.6167  -43.8017 C   0  0  0  0  0  0  0  0  0  0  0  0
  -35.9918    3.6825  -44.4012 N   0  0  0  0  0  0  0  0  0  0  0  0
  -34.6188    3.7971  -43.8607 C   0  0  0  0  0  0  0  0  0  0  0  0
  -36.5518    2.0691  -44.3142 X   0  0  0  0  0  0  0  0  0  0  0  0
  1  2  1  0  0  0  0
  2  3  1  0  0  0  0
  2  8  1  0  0  0  0
  3  4  1  0  0  0  0
  4  5  1  0  0  0  0
  5  6  1  0  0  0  0
  6  7  1  0  0  0  0
  7  8  1  0  0  0  0
  7  9  1  0  0  0  0
M  END
> <Index>
10991

> <PropertyFieldDistance>
nan

$$$$
17514128
BBcorina  12272117083D 1   1.00000     0.00000 
CORINA 4.3.0 0026  30.10.2019
  7  7  0  0  0  0  0  0  0  0999 V2000
  -37.3531    5.7724  -44.7316 C   0  0  0  0  0  0  0  0  0  0  0  0
  -37.1758    4.5246  -43.8641 C   0  0  0  0  0  0  0  0  0  0  0  0
  -36.4847    4.8057  -42.5225 C   0  0  0  0  0  0  0  0  0  0  0  0
  -36.6260    6.1494  -42.0572 O   0  0  0  0  0  0  0  0  0  0  0  0
  -35.2019    4.5506  -43.3264 C   0  0  0  0  0  0  0  0  0  0  0  0
  -36.0032    3.7116  -44.2370 N   0  0  0  0  0  0  0  0  0  0  0  0
  -35.5627    3.9827  -45.8668 X   0  0  0  0  0  0  0  0  0  0  0  0
  1  2  1  0  0  0  0
  2  3  1  0  0  0  0
  2  6  1  0  0  0  0
  3  4  1  0  0  0  0
  3  5  1  0  0  0  0
  5  6  1  0  0  0  0
  6  7  1  0  0  0  0
M  END
> <Index>
10992

> <PropertyFieldDistance>
nan

$$$$
13912632
BBcorina  12272117083D 1   1.00000     0.00000 
CORINA 4.3.0 0026  30.10.2019
 11 12  0  0  0  0  0  0  0  0999 V2000
  -36.3221    2.2739  -44.8893 C   0  0  0  0  0  0  0  0  0  0  0  0
  -36.0776    3.6554  -44.4535 N   0  0  0  0  0  0  0  0  0  0  0  0
  -37.0707    4.0749  -43.4318 C   0  0  0  0  0  0  0  0  0  0  0  0
  -36.4052    5.2620  -42.7042 C   0  0  0  0  0  0  0  0  0  0  0  0
  -36.6515    5.1192  -41.1890 C   0  0  0  0  0  0  0  0  0  0  0  0
  -35.4601    4.2678  -40.6858 C   0  0  0  0  0  0  0  0  0  0  0  0
  -34.2767    4.8056  -41.5273 C   0  0  0  0  0  0  0  0  0  0  0  0
  -33.2073    3.8019  -41.6097 N   0  0  0  0  0  0  0  0  0  0  0  0
  -34.8846    5.0611  -42.9207 C   0  0  0  0  0  0  0  0  0  0  0  0
  -34.7695    3.7710  -43.7596 C   0  0  0  0  0  0  0  0  0  0  0  0
  -32.1407    3.9321  -40.2795 X   0  0  0  0  0  0  0  0  0  0  0  0
  1  2  1  0  0  0  0
  2  3  1  0  0  0  0
  2 10  1  0  0  0  0
  3  4  1  0  0  0  0
  4  5  1  0  0  0  0
  4  9  1  0  0  0  0
  5  6  1  0  0  0  0
  6  7  1  0  0  0  0
  7  8  1  0  0  0  0
  7  9  1  0  0  0  0
  8 11  1  0  0  0  0
  9 10  1  0  0  0  0
M  END
> <Index>
10994

> <PropertyFieldDistance>
nan

$$$$
9787246
BBcorina  12272117083D 1   1.00000     0.00000 
CORINA 4.3.0 0026  30.10.2019
 10 10  0  0  0  0  0  0  0  0999 V2000
  -38.2929    4.4682  -44.3439 C   0  0  0  0  0  0  0  0  0  0  0  0
  -37.0533    4.0842  -43.5334 C   0  0  0  0  0  0  0  0  0  0  0  0
  -35.9754    3.7210  -44.4448 N   0  0  0  0  0  0  0  0  0  0  0  0
  -34.6999    4.0690  -44.2709 C   0  0  0  0  0  0  0  0  0  0  0  0
  -33.8824    3.6744  -45.0752 O   0  0  0  0  0  0  0  0  0  0  0  0
  -34.2217    4.9239  -43.1326 C   0  0  0  0  0  0  0  0  0  0  0  0
  -35.2761    4.9516  -42.0233 C   0  0  0  0  0  0  0  0  0  0  0  0
  -36.6371    5.2655  -42.6561 C   0  0  0  0  0  0  0  0  0  0  0  0
  -37.6365    5.4705  -41.5991 N   0  0  0  0  0  0  0  0  0  0  0  0
  -37.7792    4.0810  -40.6127 X   0  0  0  0  0  0  0  0  0  0  0  0
  1  2  1  0  0  0  0
  2  3  1  0  0  0  0
  2  8  1  0  0  0  0
  3  4  1  0  0  0  0
  4  5  2  0  0  0  0
  4  6  1  0  0  0  0
  6  7  1  0  0  0  0
  7  8  1  0  0  0  0
  8  9  1  0  0  0  0
  9 10  1  0  0  0  0
M  END
> <Index>
10995

> <PropertyFieldDistance>
nan

$$$$
8686318
BBcorina  12272117083D 1   1.00000     0.00000 
CORINA 4.3.0 0026  30.10.2019
 10 10  0  0  0  0  0  0  0  0999 V2000
  -38.3976    3.8538  -43.7288 C   0  0  0  0  0  0  0  0  0  0  0  0
  -36.9514    3.9682  -43.2428 C   0  0  0  0  0  0  0  0  0  0  0  0
  -36.6923    5.3914  -42.7433 C   0  0  0  0  0  0  0  0  0  0  0  0
  -35.2385    5.5066  -42.2768 C   0  0  0  0  0  0  0  0  0  0  0  0
  -34.3081    5.1369  -43.4352 C   0  0  0  0  0  0  0  0  0  0  0  0
  -34.6362    3.7210  -43.9146 C   0  0  0  0  0  0  0  0  0  0  0  0
  -36.0372    3.6631  -44.3508 N   0  0  0  0  0  0  0  0  0  0  0  0
  -36.3496    2.3572  -44.9464 C   0  0  0  0  0  0  0  0  0  0  0  0
  -37.5926    5.6888  -41.6213 N   0  0  0  0  0  0  0  0  0  0  0  0
  -39.0984    6.2737  -42.1822 X   0  0  0  0  0  0  0  0  0  0  0  0
  1  2  1  0  0  0  0
  2  3  1  0  0  0  0
  2  7  1  0  0  0  0
  3  4  1  0  0  0  0
  3  9  1  0  0  0  0
  4  5  1  0  0  0  0
  5  6  1  0  0  0  0
  6  7  1  0  0  0  0
  7  8  1  0  0  0  0
  9 10  1  0  0  0  0
M  END
> <Index>
10998

> <PropertyFieldDistance>
nan

$$$$
8228286
BBcorina  12272117083D 1   1.00000     0.00000 
CORINA 4.3.0 0026  30.10.2019
 10 10  0  0  0  0  0  0  0  0999 V2000
  -37.5897    5.7700  -41.6975 C   0  0  0  0  0  0  0  0  0  0  0  0
  -36.5702    4.8249  -42.3364 C   0  0  0  0  0  0  0  0  0  0  0  0
  -37.0096    4.4890  -43.7634 C   0  0  0  0  0  0  0  0  0  0  0  0
  -38.3618    3.7741  -43.7263 C   0  0  0  0  0  0  0  0  0  0  0  0
  -36.0086    3.6126  -44.3879 N   0  0  0  0  0  0  0  0  0  0  0  0
  -34.6919    4.2641  -44.4241 C   0  0  0  0  0  0  0  0  0  0  0  0
  -34.2525    4.5999  -42.9970 C   0  0  0  0  0  0  0  0  0  0  0  0
  -35.2534    5.4763  -42.3725 N   0  0  0  0  0  0  0  0  0  0  0  0
  -34.8300    5.8830  -41.0260 C   0  0  0  0  0  0  0  0  0  0  0  0
  -36.5015    3.1392  -45.9555 X   0  0  0  0  0  0  0  0  0  0  0  0
  1  2  1  0  0  0  0
  2  3  1  0  0  0  0
  2  8  1  0  0  0  0
  3  4  1  0  0  0  0
  3  5  1  0  0  0  0
  5  6  1  0  0  0  0
  5 10  1  0  0  0  0
  6  7  1  0  0  0  0
  7  8  1  0  0  0  0
  8  9  1  0  0  0  0
M  END
> <Index>
11000

> <PropertyFieldDistance>
nan

$$$$
14941198
BBcorina  12272117083D 1   1.00000     0.00000 
CORINA 4.3.0 0026  30.10.2019
 12 13  0  0  0  0  0  0  0  0999 V2000
  -35.9911    3.9664  -44.4693 N   0  0  0  0  0  0  0  0  0  0  0  0
  -37.0214    4.0229  -43.4835 C   0  0  0  0  0  0  0  0  0  0  0  0
  -36.9312    5.2083  -42.5522 C   0  0  0  0  0  0  0  0  0  0  0  0
  -36.7558    6.5769  -43.2143 C   0  0  0  0  0  0  0  0  0  0  0  0
  -35.7263    6.5410  -44.1650 O   0  0  0  0  0  0  0  0  0  0  0  0
  -34.3539    6.4154  -43.8914 C   0  0  0  0  0  0  0  0  0  0  0  0
  -34.0426    5.0105  -43.3677 C   0  0  0  0  0  0  0  0  0  0  0  0
  -34.6010    3.8555  -44.1650 C   0  0  0  0  0  0  0  0  0  0  0  0
  -34.5365    4.9506  -41.9019 C   0  0  0  0  0  0  0  0  0  0  0  0
  -33.7053    4.8210  -41.0310 O   0  0  0  0  0  0  0  0  0  0  0  0
  -35.8090    5.0345  -41.5644 N   0  0  0  0  0  0  0  0  0  0  0  0
  -36.3446    4.7693  -45.9217 X   0  0  0  0  0  0  0  0  0  0  0  0
  1  2  1  0  0  0  0
  1  8  1  0  0  0  0
  1 12  1  0  0  0  0
  2  3  1  0  0  0  0
  3  4  1  0  0  0  0
  3 11  1  0  0  0  0
  4  5  1  0  0  0  0
  5  6  1  0  0  0  0
  6  7  1  0  0  0  0
  7  8  1  0  0  0  0
  7  9  1  0  0  0  0
  9 10  2  0  0  0  0
  9 11  1  0  0  0  0
M  END
> <Index>
11001

> <PropertyFieldDistance>
nan

$$$$
10748026
BBcorina  12272117083D 1   1.00000     0.00000 
CORINA 4.3.0 0026  30.10.2019
 12 13  0  0  0  0  0  0  0  0999 V2000
  -36.2457    8.5329  -42.0283 O   0  0  0  0  0  0  0  0  0  0  0  0
  -36.0690    7.5526  -41.0036 C   0  0  0  0  0  0  0  0  0  0  0  0
  -37.3771    6.7858  -40.8020 C   0  0  0  0  0  0  0  0  0  0  0  0
  -37.7666    6.0811  -42.1038 C   0  0  0  0  0  0  0  0  0  0  0  0
  -36.6564    5.1079  -42.5020 C   0  0  0  0  0  0  0  0  0  0  0  0
  -37.0314    4.3876  -43.7978 C   0  0  0  0  0  0  0  0  0  0  0  0
  -35.9493    3.4673  -44.1732 N   0  0  0  0  0  0  0  0  0  0  0  0
  -34.6948    4.1887  -44.4203 C   0  0  0  0  0  0  0  0  0  0  0  0
  -34.2554    4.9120  -43.1444 C   0  0  0  0  0  0  0  0  0  0  0  0
  -35.3555    5.8862  -42.7183 C   0  0  0  0  0  0  0  0  0  0  0  0
  -34.9604    6.5805  -41.4144 C   0  0  0  0  0  0  0  0  0  0  0  0
  -36.3905    2.5231  -45.5288 X   0  0  0  0  0  0  0  0  0  0  0  0
  1  2  1  0  0  0  0
  2  3  1  0  0  0  0
  2 11  1  0  0  0  0
  3  4  1  0  0  0  0
  4  5  1  0  0  0  0
  5  6  1  0  0  0  0
  5 10  1  0  0  0  0
  6  7  1  0  0  0  0
  7  8  1  0  0  0  0
  7 12  1  0  0  0  0
  8  9  1  0  0  0  0
  9 10  1  0  0  0  0
 10 11  1  0  0  0  0
M  END
> <Index>
11003

> <PropertyFieldDistance>
nan

$$$$
9193470
BBcorina  12272117083D 1   1.00000     0.00000 
CORINA 4.3.0 0026  30.10.2019
 10 10  0  0  0  0  0  0  0  0999 V2000
  -36.4494    4.1050  -41.3780 C   0  0  0  0  0  0  0  0  0  0  0  0
  -36.6102    5.1169  -42.5143 C   0  0  0  0  0  0  0  0  0  0  0  0
  -37.0251    4.3874  -43.7947 C   0  0  0  0  0  0  0  0  0  0  0  0
  -35.9555    3.4608  -44.1932 N   0  0  0  0  0  0  0  0  0  0  0  0
  -34.6937    4.1831  -44.4109 C   0  0  0  0  0  0  0  0  0  0  0  0
  -34.3028    4.9155  -43.1246 C   0  0  0  0  0  0  0  0  0  0  0  0
  -33.0337    5.7346  -43.3686 C   0  0  0  0  0  0  0  0  0  0  0  0
  -32.6049    6.3259  -42.1404 O   0  0  0  0  0  0  0  0  0  0  0  0
  -35.3669    5.7881  -42.7356 O   0  0  0  0  0  0  0  0  0  0  0  0
  -36.4011    2.5726  -45.5848 X   0  0  0  0  0  0  0  0  0  0  0  0
  1  2  1  0  0  0  0
  2  3  1  0  0  0  0
  2  9  1  0  0  0  0
  3  4  1  0  0  0  0
  4  5  1  0  0  0  0
  4 10  1  0  0  0  0
  5  6  1  0  0  0  0
  6  7  1  0  0  0  0
  6  9  1  0  0  0  0
  7  8  1  0  0  0  0
M  END
> <Index>
11004

> <PropertyFieldDistance>
nan

$$$$
16811610
BBcorina  12272117083D 1   1.00000     0.00000 
CORINA 4.3.0 0026  30.10.2019
 16 17  0  0  0  0  0  0  0  0999 V2000
  -36.5739    2.1248  -44.5044 C   0  0  0  0  0  0  0  0  0  0  0  0
  -36.0408    3.4859  -44.4069 N   0  0  0  0  0  0  0  0  0  0  0  0
  -36.8878    4.5788  -43.9288 C   0  0  0  0  0  0  0  0  0  0  0  0
  -36.5480    4.9439  -42.4911 C   0  0  0  0  0  0  0  0  0  0  0  0
  -35.1026    5.0310  -42.2849 N   0  0  0  0  0  0  0  0  0  0  0  0
  -34.7924    5.6071  -40.9697 C   0  0  0  0  0  0  0  0  0  0  0  0
  -34.4641    5.7311  -43.2973 C   0  0  0  0  0  0  0  0  0  0  0  0
  -34.0318    7.0311  -43.1000 C   0  0  0  0  0  0  0  0  0  0  0  0
  -33.3713    7.7002  -44.1231 C   0  0  0  0  0  0  0  0  0  0  0  0
  -32.9382    9.0073  -43.9277 N   0  0  0  0  0  0  0  0  0  0  0  0
  -33.1408    7.0692  -45.3445 C   0  0  0  0  0  0  0  0  0  0  0  0
  -33.5712    5.7897  -45.5543 C   0  0  0  0  0  0  0  0  0  0  0  0
  -34.2469    5.1081  -44.5412 C   0  0  0  0  0  0  0  0  0  0  0  0
  -34.7590    3.7441  -44.7526 C   0  0  0  0  0  0  0  0  0  0  0  0
  -34.0515    2.8764  -45.2283 O   0  0  0  0  0  0  0  0  0  0  0  0
  -32.1248    9.8353  -45.1834 X   0  0  0  0  0  0  0  0  0  0  0  0
  1  2  1  0  0  0  0
  2  3  1  0  0  0  0
  2 14  1  0  0  0  0
  3  4  1  0  0  0  0
  4  5  1  0  0  0  0
  5  6  1  0  0  0  0
  5  7  1  0  0  0  0
  7  8  2  0  0  0  0
  7 13  1  0  0  0  0
  8  9  1  0  0  0  0
  9 10  1  0  0  0  0
  9 11  2  0  0  0  0
 10 16  1  0  0  0  0
 11 12  1  0  0  0  0
 12 13  2  0  0  0  0
 13 14  1  0  0  0  0
 14 15  2  0  0  0  0
M  END
> <Index>
11044

> <PropertyFieldDistance>
nan

$$$$
16807780
BBcorina  12272117083D 1   1.00000     0.00000 
CORINA 4.3.0 0026  30.10.2019
 10 10  0  0  0  0  0  0  0  0999 V2000
  -36.6358    2.2456  -41.7492 C   0  0  0  0  0  0  0  0  0  0  0  0
  -35.5886    1.9917  -43.2690 Si  0  0  0  0  0  0  0  0  0  0  0  0
  -35.1205    0.1954  -43.4274 C   0  0  0  0  0  0  0  0  0  0  0  0
  -36.5288    2.5440  -44.7928 C   0  0  0  0  0  0  0  0  0  0  0  0
  -36.5497    4.0810  -44.7843 C   0  0  0  0  0  0  0  0  0  0  0  0
  -35.1203    4.6132  -44.7951 C   0  0  0  0  0  0  0  0  0  0  0  0
  -34.4684    4.5031  -43.4207 C   0  0  0  0  0  0  0  0  0  0  0  0
  -34.0444    3.0479  -43.1650 C   0  0  0  0  0  0  0  0  0  0  0  0
  -35.1370    6.0234  -45.2061 N   0  0  0  0  0  0  0  0  0  0  0  0
  -35.9795    6.9832  -44.0690 X   0  0  0  0  0  0  0  0  0  0  0  0
  1  2  1  0  0  0  0
  2  3  1  0  0  0  0
  2  4  1  0  0  0  0
  2  8  1  0  0  0  0
  4  5  1  0  0  0  0
  5  6  1  0  0  0  0
  6  7  1  0  0  0  0
  6  9  1  0  0  0  0
  7  8  1  0  0  0  0
  9 10  1  0  0  0  0
M  END
> <Index>
11079

> <PropertyFieldDistance>
nan

$$$$
17838422
BBcorina  12272117083D 1   1.00000     0.00000 
CORINA 4.3.0 0026  30.10.2019
  8  8  0  0  0  0  0  0  0  0999 V2000
  -35.0000    0.8860  -43.7332 N   0  0  0  0  0  0  0  0  0  0  0  0
  -35.0199    2.3549  -43.7251 C   0  0  0  0  0  0  0  0  0  0  0  0
  -35.7702    2.8672  -44.9611 C   0  0  0  0  0  0  0  0  0  0  0  0
  -35.6220    4.3890  -45.0209 C   0  0  0  0  0  0  0  0  0  0  0  0
  -35.9592    4.9940  -43.6896 C   0  0  0  0  0  0  0  0  0  0  0  0
  -36.0104    4.3265  -42.5818 C   0  0  0  0  0  0  0  0  0  0  0  0
  -35.7447    2.8526  -42.4726 C   0  0  0  0  0  0  0  0  0  0  0  0
  -33.6017    0.2878  -42.9515 X   0  0  0  0  0  0  0  0  0  0  0  0
  1  2  1  0  0  0  0
  1  8  1  0  0  0  0
  2  3  1  0  0  0  0
  2  7  1  0  0  0  0
  3  4  1  0  0  0  0
  4  5  1  0  0  0  0
  5  6  2  0  0  0  0
  6  7  1  0  0  0  0
M  END
> <Index>
11080

> <PropertyFieldDistance>
nan

$$$$
12808002
BBcorina  12272117083D 1   1.00000     0.00000 
CORINA 4.3.0 0026  30.10.2019
 14 15  0  0  0  0  0  0  0  0999 V2000
  -35.2517    5.7272  -42.7086 N   0  0  0  0  0  0  0  0  0  0  0  0
  -36.5103    5.0791  -42.3144 C   0  0  0  0  0  0  0  0  0  0  0  0
  -37.0926    4.3293  -43.5148 C   0  0  0  0  0  0  0  0  0  0  0  0
  -36.1182    3.3364  -43.9885 N   0  0  0  0  0  0  0  0  0  0  0  0
  -36.6706    2.5427  -45.0944 C   0  0  0  0  0  0  0  0  0  0  0  0
  -35.5754    1.7129  -45.7132 C   0  0  0  0  0  0  0  0  0  0  0  0
  -35.3853    0.4043  -45.3065 C   0  0  0  0  0  0  0  0  0  0  0  0
  -34.4284   -0.3251  -45.8531 N   0  0  0  0  0  0  0  0  0  0  0  0
  -33.6466    0.1985  -46.7805 C   0  0  0  0  0  0  0  0  0  0  0  0
  -33.8367    1.5076  -47.1874 C   0  0  0  0  0  0  0  0  0  0  0  0
  -34.7967    2.2352  -46.6446 N   0  0  0  0  0  0  0  0  0  0  0  0
  -34.8596    3.9845  -44.3827 C   0  0  0  0  0  0  0  0  0  0  0  0
  -34.2773    4.7344  -43.1823 C   0  0  0  0  0  0  0  0  0  0  0  0
  -34.6087    6.6511  -41.4213 X   0  0  0  0  0  0  0  0  0  0  0  0
  1  2  1  0  0  0  0
  1 13  1  0  0  0  0
  1 14  1  0  0  0  0
  2  3  1  0  0  0  0
  3  4  1  0  0  0  0
  4  5  1  0  0  0  0
  4 12  1  0  0  0  0
  5  6  1  0  0  0  0
  6  7  2  0  0  0  0
  6 11  1  0  0  0  0
  7  8  1  0  0  0  0
  8  9  2  0  0  0  0
  9 10  1  0  0  0  0
 10 11  2  0  0  0  0
 12 13  1  0  0  0  0
M  END
> <Index>
11097

> <PropertyFieldDistance>
nan

$$$$
7968428
BBcorina  12272117083D 1   1.00000     0.00000 
CORINA 4.3.0 0026  30.10.2019
 14 14  0  0  0  0  0  0  0  0999 V2000
  -36.7490   -0.8566  -48.5381 C   0  0  0  0  0  0  0  0  0  0  0  0
  -36.5522    0.4999  -48.0592 O   0  0  0  0  0  0  0  0  0  0  0  0
  -36.4635    0.6701  -46.7306 C   0  0  0  0  0  0  0  0  0  0  0  0
  -36.5476   -0.2827  -45.9925 O   0  0  0  0  0  0  0  0  0  0  0  0
  -36.2591    2.0498  -46.1597 C   0  0  0  0  0  0  0  0  0  0  0  0
  -36.1929    1.9655  -44.6335 C   0  0  0  0  0  0  0  0  0  0  0  0
  -35.9942    3.3068  -44.0786 N   0  0  0  0  0  0  0  0  0  0  0  0
  -37.0824    4.2177  -43.7044 C   0  0  0  0  0  0  0  0  0  0  0  0
  -36.4355    5.2823  -42.7909 C   0  0  0  0  0  0  0  0  0  0  0  0
  -34.9614    5.2469  -43.2641 C   0  0  0  0  0  0  0  0  0  0  0  0
  -34.7236    6.2696  -44.2915 N   0  0  0  0  0  0  0  0  0  0  0  0
  -34.7918    3.8613  -43.8471 C   0  0  0  0  0  0  0  0  0  0  0  0
  -33.7260    3.3282  -44.0726 O   0  0  0  0  0  0  0  0  0  0  0  0
  -35.7955    6.0751  -45.6095 X   0  0  0  0  0  0  0  0  0  0  0  0
  1  2  1  0  0  0  0
  2  3  1  0  0  0  0
  3  4  2  0  0  0  0
  3  5  1  0  0  0  0
  5  6  1  0  0  0  0
  6  7  1  0  0  0  0
  7  8  1  0  0  0  0
  7 12  1  0  0  0  0
  8  9  1  0  0  0  0
  9 10  1  0  0  0  0
 10 11  1  0  0  0  0
 10 12  1  0  0  0  0
 11 14  1  0  0  0  0
 12 13  2  0  0  0  0
M  END
> <Index>
11122

> <PropertyFieldDistance>
nan

$$$$
8125024
BBcorina  12272117083D 1   1.00000     0.00000 
CORINA 4.3.0 0026  30.10.2019
 15 15  0  0  0  0  0  0  0  0999 V2000
  -36.9288   -0.5853  -43.9188 C   0  0  0  0  0  0  0  0  0  0  0  0
  -37.7522    0.3473  -44.8095 C   0  0  0  0  0  0  0  0  0  0  0  0
  -37.3582    0.1346  -46.2725 C   0  0  0  0  0  0  0  0  0  0  0  0
  -39.2404    0.0395  -44.6320 C   0  0  0  0  0  0  0  0  0  0  0  0
  -37.4927    1.7386  -44.4312 N   0  0  0  0  0  0  0  0  0  0  0  0
  -36.2422    2.2357  -44.5073 C   0  0  0  0  0  0  0  0  0  0  0  0
  -35.3153    1.5067  -44.8035 O   0  0  0  0  0  0  0  0  0  0  0  0
  -36.0194    3.5408  -44.2552 N   0  0  0  0  0  0  0  0  0  0  0  0
  -37.1077    4.4090  -43.7856 C   0  0  0  0  0  0  0  0  0  0  0  0
  -36.6603    5.1075  -42.4976 C   0  0  0  0  0  0  0  0  0  0  0  0
  -35.3388    5.8368  -42.7501 C   0  0  0  0  0  0  0  0  0  0  0  0
  -34.2632    4.8238  -43.1487 C   0  0  0  0  0  0  0  0  0  0  0  0
  -34.6820    4.1209  -44.4388 C   0  0  0  0  0  0  0  0  0  0  0  0
  -34.9235    6.5349  -41.5261 N   0  0  0  0  0  0  0  0  0  0  0  0
  -34.5990    5.4241  -40.2672 X   0  0  0  0  0  0  0  0  0  0  0  0
  1  2  1  0  0  0  0
  2  3  1  0  0  0  0
  2  4  1  0  0  0  0
  2  5  1  0  0  0  0
  5  6  1  0  0  0  0
  6  7  2  0  0  0  0
  6  8  1  0  0  0  0
  8  9  1  0  0  0  0
  8 13  1  0  0  0  0
  9 10  1  0  0  0  0
 10 11  1  0  0  0  0
 11 12  1  0  0  0  0
 11 14  1  0  0  0  0
 12 13  1  0  0  0  0
 14 15  1  0  0  0  0
M  END
> <Index>
11136

> <PropertyFieldDistance>
nan

$$$$
8159168
BBcorina  12272117083D 1   1.00000     0.00000 
CORINA 4.3.0 0026  30.10.2019
 12 12  0  0  0  0  0  0  0  0999 V2000
  -35.0658    2.9852  -48.1077 C   0  0  0  0  0  0  0  0  0  0  0  0
  -35.0540    2.7338  -46.7010 O   0  0  0  0  0  0  0  0  0  0  0  0
  -36.3066    2.2842  -46.1804 C   0  0  0  0  0  0  0  0  0  0  0  0
  -36.1777    2.0481  -44.6743 C   0  0  0  0  0  0  0  0  0  0  0  0
  -35.9130    3.3220  -44.0011 N   0  0  0  0  0  0  0  0  0  0  0  0
  -37.0481    4.1179  -43.5429 C   0  0  0  0  0  0  0  0  0  0  0  0
  -36.5841    5.1374  -42.5010 C   0  0  0  0  0  0  0  0  0  0  0  0
  -35.4221    5.8650  -43.0364 N   0  0  0  0  0  0  0  0  0  0  0  0
  -34.2609    4.9696  -43.1258 C   0  0  0  0  0  0  0  0  0  0  0  0
  -34.6432    3.7023  -43.8368 C   0  0  0  0  0  0  0  0  0  0  0  0
  -33.7623    2.9951  -44.2778 O   0  0  0  0  0  0  0  0  0  0  0  0
  -35.0653    7.2378  -42.0813 X   0  0  0  0  0  0  0  0  0  0  0  0
  1  2  1  0  0  0  0
  2  3  1  0  0  0  0
  3  4  1  0  0  0  0
  4  5  1  0  0  0  0
  5  6  1  0  0  0  0
  5 10  1  0  0  0  0
  6  7  1  0  0  0  0
  7  8  1  0  0  0  0
  8  9  1  0  0  0  0
  8 12  1  0  0  0  0
  9 10  1  0  0  0  0
 10 11  2  0  0  0  0
M  END
> <Index>
11139

> <PropertyFieldDistance>
nan

$$$$
8227390
BBcorina  12272117083D 1   1.00000     0.00000 
CORINA 4.3.0 0026  30.10.2019
 10 10  0  0  0  0  0  0  0  0999 V2000
  -36.4947   -1.8423  -47.5477 C   0  0  0  0  0  0  0  0  0  0  0  0
  -36.1654   -0.3500  -47.4715 C   0  0  0  0  0  0  0  0  0  0  0  0
  -36.3796    0.1477  -46.0397 C   0  0  0  0  0  0  0  0  0  0  0  0
  -36.1059    1.6538  -45.9847 C   0  0  0  0  0  0  0  0  0  0  0  0
  -36.3933    2.1751  -44.5753 C   0  0  0  0  0  0  0  0  0  0  0  0
  -36.0173    3.5927  -44.4913 N   0  0  0  0  0  0  0  0  0  0  0  0
  -37.0177    2.3643  -46.9897 C   0  0  0  0  0  0  0  0  0  0  0  0
  -36.7788    1.7810  -48.3849 C   0  0  0  0  0  0  0  0  0  0  0  0
  -37.0211    0.3729  -48.3587 O   0  0  0  0  0  0  0  0  0  0  0  0
  -36.3230    4.2162  -42.9286 X   0  0  0  0  0  0  0  0  0  0  0  0
  1  2  1  0  0  0  0
  2  3  1  0  0  0  0
  2  9  1  0  0  0  0
  3  4  1  0  0  0  0
  4  5  1  0  0  0  0
  4  7  1  0  0  0  0
  5  6  1  0  0  0  0
  6 10  1  0  0  0  0
  7  8  1  0  0  0  0
  8  9  1  0  0  0  0
M  END
> <Index>
11159

> <PropertyFieldDistance>
nan

$$$$
8227504
BBcorina  12272117083D 1   1.00000     0.00000 
CORINA 4.3.0 0026  30.10.2019
 11 12  0  0  0  0  0  0  0  0999 V2000
  -34.9437    6.5306  -41.3614 C   0  0  0  0  0  0  0  0  0  0  0  0
  -35.2579    5.2196  -42.0851 C   0  0  0  0  0  0  0  0  0  0  0  0
  -36.6895    5.2649  -42.6310 C   0  0  0  0  0  0  0  0  0  0  0  0
  -36.9552    4.0010  -43.4517 C   0  0  0  0  0  0  0  0  0  0  0  0
  -36.0219    3.9384  -44.5834 N   0  0  0  0  0  0  0  0  0  0  0  0
  -34.6317    3.8247  -44.1192 C   0  0  0  0  0  0  0  0  0  0  0  0
  -34.2890    5.0346  -43.2523 C   0  0  0  0  0  0  0  0  0  0  0  0
  -32.8133    5.0970  -42.8400 C   0  0  0  0  0  0  0  0  0  0  0  0
  -32.8933    6.6137  -43.0859 C   0  0  0  0  0  0  0  0  0  0  0  0
  -34.0487    6.3176  -44.0577 C   0  0  0  0  0  0  0  0  0  0  0  0
  -36.4228    2.6534  -45.6380 X   0  0  0  0  0  0  0  0  0  0  0  0
  1  2  1  0  0  0  0
  2  3  1  0  0  0  0
  2  7  1  0  0  0  0
  3  4  1  0  0  0  0
  4  5  1  0  0  0  0
  5  6  1  0  0  0  0
  5 11  1  0  0  0  0
  6  7  1  0  0  0  0
  7  8  1  0  0  0  0
  7 10  1  0  0  0  0
  8  9  1  0  0  0  0
  9 10  1  0  0  0  0
M  END
> <Index>
11162

> <PropertyFieldDistance>
nan

$$$$
9477626
BBcorina  12272117083D 1   1.00000     0.00000 
CORINA 4.3.0 0026  30.10.2019
 10 10  0  0  0  0  0  0  0  0999 V2000
  -33.0245    2.9837  -42.4212 C   0  0  0  0  0  0  0  0  0  0  0  0
  -34.0328    3.9476  -42.1107 O   0  0  0  0  0  0  0  0  0  0  0  0
  -34.2559    4.9088  -43.1443 C   0  0  0  0  0  0  0  0  0  0  0  0
  -32.9625    5.6813  -43.4114 C   0  0  0  0  0  0  0  0  0  0  0  0
  -35.3535    5.8832  -42.7080 C   0  0  0  0  0  0  0  0  0  0  0  0
  -36.6586    5.1099  -42.5007 C   0  0  0  0  0  0  0  0  0  0  0  0
  -37.0290    4.3869  -43.7977 C   0  0  0  0  0  0  0  0  0  0  0  0
  -35.9479    3.4664  -44.1723 N   0  0  0  0  0  0  0  0  0  0  0  0
  -34.6958    4.1916  -44.4226 C   0  0  0  0  0  0  0  0  0  0  0  0
  -36.3900    2.5211  -45.5270 X   0  0  0  0  0  0  0  0  0  0  0  0
  1  2  1  0  0  0  0
  2  3  1  0  0  0  0
  3  4  1  0  0  0  0
  3  5  1  0  0  0  0
  3  9  1  0  0  0  0
  5  6  1  0  0  0  0
  6  7  1  0  0  0  0
  7  8  1  0  0  0  0
  8  9  1  0  0  0  0
  8 10  1  0  0  0  0
M  END
> <Index>
11170

> <PropertyFieldDistance>
nan

$$$$
8252194
BBcorina  12272117083D 1   1.00000     0.00000 
CORINA 4.3.0 0026  30.10.2019
  8  8  0  0  0  0  0  0  0  0999 V2000
  -33.0410    5.3669  -43.0375 F   0  0  0  0  0  0  0  0  0  0  0  0
  -34.3252    4.9838  -43.2089 C   0  0  0  0  0  0  0  0  0  0  0  0
  -35.2111    5.4066  -42.3579 C   0  0  0  0  0  0  0  0  0  0  0  0
  -36.6650    5.0352  -42.4444 C   0  0  0  0  0  0  0  0  0  0  0  0
  -36.9752    4.4841  -43.8384 C   0  0  0  0  0  0  0  0  0  0  0  0
  -35.9664    3.4650  -44.1726 N   0  0  0  0  0  0  0  0  0  0  0  0
  -34.6555    4.0954  -44.3735 C   0  0  0  0  0  0  0  0  0  0  0  0
  -36.4337    2.5694  -45.5523 X   0  0  0  0  0  0  0  0  0  0  0  0
  1  2  1  0  0  0  0
  2  3  2  0  0  0  0
  2  7  1  0  0  0  0
  3  4  1  0  0  0  0
  4  5  1  0  0  0  0
  5  6  1  0  0  0  0
  6  7  1  0  0  0  0
  6  8  1  0  0  0  0
M  END
> <Index>
11171

> <PropertyFieldDistance>
nan

$$$$
8252196
BBcorina  12272117083D 1   1.00000     0.00000 
CORINA 4.3.0 0026  30.10.2019
 13 14  0  0  0  0  0  0  0  0999 V2000
  -33.4994    9.2254  -39.3430 C   0  0  0  0  0  0  0  0  0  0  0  0
  -34.1478    8.0000  -39.9339 C   0  0  0  0  0  0  0  0  0  0  0  0
  -34.3405    7.7507  -41.2967 C   0  0  0  0  0  0  0  0  0  0  0  0
  -34.9527    6.5499  -41.4177 C   0  0  0  0  0  0  0  0  0  0  0  0
  -35.1452    6.0593  -40.1754 N   0  0  0  0  0  0  0  0  0  0  0  0
  -34.6270    6.9855  -39.2610 N   0  0  0  0  0  0  0  0  0  0  0  0
  -35.3535    5.8831  -42.7083 C   0  0  0  0  0  0  0  0  0  0  0  0
  -36.6588    5.1098  -42.5008 C   0  0  0  0  0  0  0  0  0  0  0  0
  -37.0292    4.3868  -43.7978 C   0  0  0  0  0  0  0  0  0  0  0  0
  -35.9482    3.4661  -44.1723 N   0  0  0  0  0  0  0  0  0  0  0  0
  -34.6961    4.1914  -44.4229 C   0  0  0  0  0  0  0  0  0  0  0  0
  -34.2549    4.9095  -43.1439 C   0  0  0  0  0  0  0  0  0  0  0  0
  -36.3903    2.5207  -45.5269 X   0  0  0  0  0  0  0  0  0  0  0  0
  1  2  1  0  0  0  0
  2  3  1  0  0  0  0
  2  6  2  0  0  0  0
  3  4  2  0  0  0  0
  4  5  1  0  0  0  0
  4  7  1  0  0  0  0
  5  6  1  0  0  0  0
  7  8  1  0  0  0  0
  7 12  1  0  0  0  0
  8  9  1  0  0  0  0
  9 10  1  0  0  0  0
 10 11  1  0  0  0  0
 10 13  1  0  0  0  0
 11 12  1  0  0  0  0
M  END
> <Index>
11175

> <PropertyFieldDistance>
nan

$$$$
14470100
BBcorina  12272117083D 1   1.00000     0.00000 
CORINA 4.3.0 0026  30.10.2019
  9  9  0  0  0  0  0  0  0  0999 V2000
  -35.0684    6.8436  -41.3044 Cl  0  0  0  0  0  0  0  0  0  0  0  0
  -35.4025    5.6086  -42.4777 C   0  0  0  0  0  0  0  0  0  0  0  0
  -36.6181    5.1542  -42.5742 C   0  0  0  0  0  0  0  0  0  0  0  0
  -37.8333    5.8200  -41.5284 Cl  0  0  0  0  0  0  0  0  0  0  0  0
  -37.0215    4.0822  -43.5451 C   0  0  0  0  0  0  0  0  0  0  0  0
  -36.0030    3.9351  -44.5926 N   0  0  0  0  0  0  0  0  0  0  0  0
  -34.6695    3.7815  -43.9876 C   0  0  0  0  0  0  0  0  0  0  0  0
  -34.2752    5.1106  -43.3383 C   0  0  0  0  0  0  0  0  0  0  0  0
  -36.3658    2.6164  -45.6191 X   0  0  0  0  0  0  0  0  0  0  0  0
  1  2  1  0  0  0  0
  2  3  2  0  0  0  0
  2  8  1  0  0  0  0
  3  4  1  0  0  0  0
  3  5  1  0  0  0  0
  5  6  1  0  0  0  0
  6  7  1  0  0  0  0
  6  9  1  0  0  0  0
  7  8  1  0  0  0  0
M  END
> <Index>
11178

> <PropertyFieldDistance>
nan

$$$$
9155854
BBcorina  12272117083D 1   1.00000     0.00000 
CORINA 4.3.0 0026  30.10.2019
 14 15  0  0  0  0  0  0  0  0999 V2000
  -38.4232   -0.3537  -46.1978 C   0  0  0  0  0  0  0  0  0  0  0  0
  -37.4038    0.7117  -45.8864 C   0  0  0  0  0  0  0  0  0  0  0  0
  -37.3989    1.5343  -44.7563 C   0  0  0  0  0  0  0  0  0  0  0  0
  -36.3193    2.3592  -44.8463 C   0  0  0  0  0  0  0  0  0  0  0  0
  -35.6748    2.0636  -45.9981 N   0  0  0  0  0  0  0  0  0  0  0  0
  -36.3722    1.0249  -46.6278 N   0  0  0  0  0  0  0  0  0  0  0  0
  -35.9494    3.3336  -43.9235 N   0  0  0  0  0  0  0  0  0  0  0  0
  -37.0464    4.2817  -43.6911 C   0  0  0  0  0  0  0  0  0  0  0  0
  -36.6586    5.2476  -42.5692 C   0  0  0  0  0  0  0  0  0  0  0  0
  -35.3853    5.9993  -42.9671 C   0  0  0  0  0  0  0  0  0  0  0  0
  -34.2720    4.9870  -43.2505 C   0  0  0  0  0  0  0  0  0  0  0  0
  -34.7290    4.0286  -44.3525 C   0  0  0  0  0  0  0  0  0  0  0  0
  -34.9753    6.8856  -41.8697 N   0  0  0  0  0  0  0  0  0  0  0  0
  -34.6618    5.9927  -40.4454 X   0  0  0  0  0  0  0  0  0  0  0  0
  1  2  1  0  0  0  0
  2  3  1  0  0  0  0
  2  6  2  0  0  0  0
  3  4  2  0  0  0  0
  4  5  1  0  0  0  0
  4  7  1  0  0  0  0
  5  6  1  0  0  0  0
  7  8  1  0  0  0  0
  7 12  1  0  0  0  0
  8  9  1  0  0  0  0
  9 10  1  0  0  0  0
 10 11  1  0  0  0  0
 10 13  1  0  0  0  0
 11 12  1  0  0  0  0
 13 14  1  0  0  0  0
M  END
> <Index>
11202

> <PropertyFieldDistance>
nan

$$$$
8284088
BBcorina  12272117083D 1   1.00000     0.00000 
CORINA 4.3.0 0026  30.10.2019
 12 13  0  0  0  0  0  0  0  0999 V2000
  -39.1307    2.5263  -39.0611 O   0  0  0  0  0  0  0  0  0  0  0  0
  -38.3312    3.6793  -39.3320 C   0  0  0  0  0  0  0  0  0  0  0  0
  -38.0984    3.7958  -40.8398 C   0  0  0  0  0  0  0  0  0  0  0  0
  -37.3495    5.0954  -41.1403 C   0  0  0  0  0  0  0  0  0  0  0  0
  -37.1537    5.2327  -42.6527 C   0  0  0  0  0  0  0  0  0  0  0  0
  -36.3854    4.0181  -43.1729 C   0  0  0  0  0  0  0  0  0  0  0  0
  -34.8966    4.0386  -42.8104 C   0  0  0  0  0  0  0  0  0  0  0  0
  -34.7225    3.4796  -44.2299 C   0  0  0  0  0  0  0  0  0  0  0  0
  -35.9962    4.1327  -44.5875 N   0  0  0  0  0  0  0  0  0  0  0  0
  -37.0743    2.6961  -42.8364 C   0  0  0  0  0  0  0  0  0  0  0  0
  -37.2719    2.6019  -41.3208 C   0  0  0  0  0  0  0  0  0  0  0  0
  -36.9531    3.1123  -45.5709 X   0  0  0  0  0  0  0  0  0  0  0  0
  1  2  1  0  0  0  0
  2  3  1  0  0  0  0
  3  4  1  0  0  0  0
  3 11  1  0  0  0  0
  4  5  1  0  0  0  0
  5  6  1  0  0  0  0
  6  7  1  0  0  0  0
  6  9  1  0  0  0  0
  6 10  1  0  0  0  0
  7  8  1  0  0  0  0
  8  9  1  0  0  0  0
  9 12  1  0  0  0  0
 10 11  1  0  0  0  0
M  END
> <Index>
11203

> <PropertyFieldDistance>
nan

$$$$
8283978
BBcorina  12272117083D 1   1.00000     0.00000 
CORINA 4.3.0 0026  30.10.2019
  8  8  0  0  0  0  0  0  0  0999 V2000
  -38.1117    5.4025  -46.0078 C   0  0  0  0  0  0  0  0  0  0  0  0
  -37.3532    5.7723  -44.7315 C   0  0  0  0  0  0  0  0  0  0  0  0
  -35.9797    6.3368  -45.0999 C   0  0  0  0  0  0  0  0  0  0  0  0
  -37.1759    4.5246  -43.8641 C   0  0  0  0  0  0  0  0  0  0  0  0
  -36.4846    4.8056  -42.5225 C   0  0  0  0  0  0  0  0  0  0  0  0
  -35.7853    3.4674  -42.7989 C   0  0  0  0  0  0  0  0  0  0  0  0
  -36.0032    3.7116  -44.2369 N   0  0  0  0  0  0  0  0  0  0  0  0
  -36.4810    2.2775  -45.0366 X   0  0  0  0  0  0  0  0  0  0  0  0
  1  2  1  0  0  0  0
  2  3  1  0  0  0  0
  2  4  1  0  0  0  0
  4  5  1  0  0  0  0
  4  7  1  0  0  0  0
  5  6  1  0  0  0  0
  6  7  1  0  0  0  0
  7  8  1  0  0  0  0
M  END
> <Index>
11204

> <PropertyFieldDistance>
nan

$$$$
8305704
BBcorina  12272117083D 1   1.00000     0.00000 
CORINA 4.3.0 0026  30.10.2019
 12 12  0  0  0  0  0  0  0  0999 V2000
  -37.5768    5.3787  -41.4174 C   0  0  0  0  0  0  0  0  0  0  0  0
  -36.7015    5.3323  -42.6714 C   0  0  0  0  0  0  0  0  0  0  0  0
  -36.9622    4.0285  -43.4332 C   0  0  0  0  0  0  0  0  0  0  0  0
  -36.0119    3.9180  -44.5479 N   0  0  0  0  0  0  0  0  0  0  0  0
  -34.6279    3.8368  -44.0622 C   0  0  0  0  0  0  0  0  0  0  0  0
  -34.2713    5.1388  -43.3274 C   0  0  0  0  0  0  0  0  0  0  0  0
  -35.2828    5.3721  -42.2854 N   0  0  0  0  0  0  0  0  0  0  0  0
  -34.8360    5.6786  -40.7206 S   0  0  0  0  0  0  0  0  0  0  0  0
  -33.4558    5.3429  -40.6781 O   0  0  0  0  0  0  0  0  0  0  0  0
  -35.7871    4.9686  -39.9392 O   0  0  0  0  0  0  0  0  0  0  0  0
  -35.0620    7.4680  -40.5274 C   0  0  0  0  0  0  0  0  0  0  0  0
  -36.3905    2.5819  -45.5459 X   0  0  0  0  0  0  0  0  0  0  0  0
  1  2  1  0  0  0  0
  2  3  1  0  0  0  0
  2  7  1  0  0  0  0
  3  4  1  0  0  0  0
  4  5  1  0  0  0  0
  4 12  1  0  0  0  0
  5  6  1  0  0  0  0
  6  7  1  0  0  0  0
  7  8  1  0  0  0  0
  8  9  2  0  0  0  0
  8 10  2  0  0  0  0
  8 11  1  0  0  0  0
M  END
> <Index>
11209

> <PropertyFieldDistance>
nan

$$$$
12103878
BBcorina  12272117083D 1   1.00000     0.00000 
CORINA 4.3.0 0026  30.10.2019
  8  9  0  0  0  0  0  0  0  0999 V2000
  -36.0375    3.9620  -44.5653 N   0  0  0  0  0  0  0  0  0  0  0  0
  -36.8840    3.9452  -43.3616 C   0  0  0  0  0  0  0  0  0  0  0  0
  -36.8020    5.3144  -42.6839 C   0  0  0  0  0  0  0  0  0  0  0  0
  -35.3366    5.6752  -42.4311 C   0  0  0  0  0  0  0  0  0  0  0  0
  -34.6364    6.4160  -43.5552 C   0  0  0  0  0  0  0  0  0  0  0  0
  -34.2426    4.9800  -43.2326 C   0  0  0  0  0  0  0  0  0  0  0  0
  -34.6213    3.8621  -44.1943 C   0  0  0  0  0  0  0  0  0  0  0  0
  -36.4786    2.7091  -45.6423 X   0  0  0  0  0  0  0  0  0  0  0  0
  1  2  1  0  0  0  0
  1  7  1  0  0  0  0
  1  8  1  0  0  0  0
  2  3  1  0  0  0  0
  3  4  1  0  0  0  0
  4  5  1  0  0  0  0
  4  6  1  0  0  0  0
  5  6  1  0  0  0  0
  6  7  1  0  0  0  0
M  END
> <Index>
11217

> <PropertyFieldDistance>
nan

$$$$
16924642
BBcorina  12272117083D 1   1.00000     0.00000 
CORINA 4.3.0 0026  30.10.2019
 11 11  0  0  0  0  0  0  0  0999 V2000
  -36.4492    4.1045  -41.3788 C   0  0  0  0  0  0  0  0  0  0  0  0
  -36.6101    5.1169  -42.5144 C   0  0  0  0  0  0  0  0  0  0  0  0
  -37.6832    6.1405  -42.1381 C   0  0  0  0  0  0  0  0  0  0  0  0
  -37.0250    4.3873  -43.7948 C   0  0  0  0  0  0  0  0  0  0  0  0
  -35.9554    3.4606  -44.1930 N   0  0  0  0  0  0  0  0  0  0  0  0
  -34.6941    4.1836  -44.4110 C   0  0  0  0  0  0  0  0  0  0  0  0
  -34.3026    4.9152  -43.1245 C   0  0  0  0  0  0  0  0  0  0  0  0
  -33.0334    5.7342  -43.3684 C   0  0  0  0  0  0  0  0  0  0  0  0
  -32.6059    6.3274  -42.1406 O   0  0  0  0  0  0  0  0  0  0  0  0
  -35.3667    5.7881  -42.7357 O   0  0  0  0  0  0  0  0  0  0  0  0
  -36.4010    2.5722  -45.5846 X   0  0  0  0  0  0  0  0  0  0  0  0
  1  2  1  0  0  0  0
  2  3  1  0  0  0  0
  2  4  1  0  0  0  0
  2 10  1  0  0  0  0
  4  5  1  0  0  0  0
  5  6  1  0  0  0  0
  5 11  1  0  0  0  0
  6  7  1  0  0  0  0
  7  8  1  0  0  0  0
  7 10  1  0  0  0  0
  8  9  1  0  0  0  0
M  END
> <Index>
11223

> <PropertyFieldDistance>
nan

$$$$
16924712
BBcorina  12272117083D 1   1.00000     0.00000 
CORINA 4.3.0 0026  30.10.2019
 11 11  0  0  0  0  0  0  0  0999 V2000
  -36.4492    4.1045  -41.3788 C   0  0  0  0  0  0  0  0  0  0  0  0
  -36.6101    5.1169  -42.5144 C   0  0  0  0  0  0  0  0  0  0  0  0
  -37.6832    6.1405  -42.1381 C   0  0  0  0  0  0  0  0  0  0  0  0
  -37.0250    4.3873  -43.7948 C   0  0  0  0  0  0  0  0  0  0  0  0
  -35.9554    3.4606  -44.1930 N   0  0  0  0  0  0  0  0  0  0  0  0
  -34.6941    4.1836  -44.4110 C   0  0  0  0  0  0  0  0  0  0  0  0
  -34.3026    4.9152  -43.1245 C   0  0  0  0  0  0  0  0  0  0  0  0
  -33.0334    5.7342  -43.3684 C   0  0  0  0  0  0  0  0  0  0  0  0
  -32.6059    6.3274  -42.1406 O   0  0  0  0  0  0  0  0  0  0  0  0
  -35.3667    5.7881  -42.7357 O   0  0  0  0  0  0  0  0  0  0  0  0
  -36.4010    2.5722  -45.5846 X   0  0  0  0  0  0  0  0  0  0  0  0
  1  2  1  0  0  0  0
  2  3  1  0  0  0  0
  2  4  1  0  0  0  0
  2 10  1  0  0  0  0
  4  5  1  0  0  0  0
  5  6  1  0  0  0  0
  5 11  1  0  0  0  0
  6  7  1  0  0  0  0
  7  8  1  0  0  0  0
  7 10  1  0  0  0  0
  8  9  1  0  0  0  0
M  END
> <Index>
11224

> <PropertyFieldDistance>
nan

$$$$
10176818
BBcorina  12272117083D 1   1.00000     0.00000 
CORINA 4.3.0 0026  30.10.2019
 10 10  0  0  0  0  0  0  0  0999 V2000
  -31.9437    4.7942  -43.8418 O   0  0  0  0  0  0  0  0  0  0  0  0
  -32.8471    4.9088  -42.7406 C   0  0  0  0  0  0  0  0  0  0  0  0
  -34.2770    5.0496  -43.2665 C   0  0  0  0  0  0  0  0  0  0  0  0
  -34.3704    6.1945  -44.0650 F   0  0  0  0  0  0  0  0  0  0  0  0
  -35.2462    5.1676  -42.0870 C   0  0  0  0  0  0  0  0  0  0  0  0
  -36.6793    5.2476  -42.6202 C   0  0  0  0  0  0  0  0  0  0  0  0
  -36.9723    4.0087  -43.4695 C   0  0  0  0  0  0  0  0  0  0  0  0
  -36.0192    3.9414  -44.5845 N   0  0  0  0  0  0  0  0  0  0  0  0
  -34.6396    3.8164  -44.0971 C   0  0  0  0  0  0  0  0  0  0  0  0
  -36.4110    2.6621  -45.6493 X   0  0  0  0  0  0  0  0  0  0  0  0
  1  2  1  0  0  0  0
  2  3  1  0  0  0  0
  3  4  1  0  0  0  0
  3  5  1  0  0  0  0
  3  9  1  0  0  0  0
  5  6  1  0  0  0  0
  6  7  1  0  0  0  0
  7  8  1  0  0  0  0
  8  9  1  0  0  0  0
  8 10  1  0  0  0  0
M  END
> <Index>
11228

> <PropertyFieldDistance>
nan

$$$$
8698928
BBcorina  12272117083D 1   1.00000     0.00000 
CORINA 4.3.0 0026  30.10.2019
 10 10  0  0  0  0  0  0  0  0999 V2000
  -36.3421    2.2351  -44.8576 C   0  0  0  0  0  0  0  0  0  0  0  0
  -35.9921    3.4876  -44.1831 N   0  0  0  0  0  0  0  0  0  0  0  0
  -37.0597    4.3609  -43.6932 C   0  0  0  0  0  0  0  0  0  0  0  0
  -36.5516    5.1426  -42.4771 C   0  0  0  0  0  0  0  0  0  0  0  0
  -35.2758    5.8915  -42.8768 C   0  0  0  0  0  0  0  0  0  0  0  0
  -34.3049    4.9351  -43.4110 N   0  0  0  0  0  0  0  0  0  0  0  0
  -32.9699    5.1925  -43.2791 N   0  0  0  0  0  0  0  0  0  0  0  0
  -34.6996    3.8110  -44.0274 C   0  0  0  0  0  0  0  0  0  0  0  0
  -33.8522    3.0555  -44.4626 O   0  0  0  0  0  0  0  0  0  0  0  0
  -32.4048    6.1708  -44.5628 X   0  0  0  0  0  0  0  0  0  0  0  0
  1  2  1  0  0  0  0
  2  3  1  0  0  0  0
  2  8  1  0  0  0  0
  3  4  1  0  0  0  0
  4  5  1  0  0  0  0
  5  6  1  0  0  0  0
  6  7  1  0  0  0  0
  6  8  1  0  0  0  0
  7 10  1  0  0  0  0
  8  9  2  0  0  0  0
M  END
> <Index>
11240

> <PropertyFieldDistance>
nan

$$$$
8625630
BBcorina  12272117083D 1   1.00000     0.00000 
CORINA 4.3.0 0026  30.10.2019
 11 11  0  0  0  0  0  0  0  0999 V2000
  -36.8929    7.9579  -43.0712 C   0  0  0  0  0  0  0  0  0  0  0  0
  -35.5517    7.3588  -43.4994 C   0  0  0  0  0  0  0  0  0  0  0  0
  -35.2202    7.8191  -44.8545 N   0  0  0  0  0  0  0  0  0  0  0  0
  -35.6472    5.8549  -43.4890 C   0  0  0  0  0  0  0  0  0  0  0  0
  -36.7425    5.3055  -43.0600 C   0  0  0  0  0  0  0  0  0  0  0  0
  -36.9489    3.8198  -42.9960 C   0  0  0  0  0  0  0  0  0  0  0  0
  -35.9579    3.1318  -43.8333 N   0  0  0  0  0  0  0  0  0  0  0  0
  -36.2535    3.3188  -45.2601 C   0  0  0  0  0  0  0  0  0  0  0  0
  -34.6019    3.6050  -43.5085 C   0  0  0  0  0  0  0  0  0  0  0  0
  -34.4700    5.0569  -43.9754 C   0  0  0  0  0  0  0  0  0  0  0  0
  -36.3937    7.2968  -45.9833 X   0  0  0  0  0  0  0  0  0  0  0  0
  1  2  1  0  0  0  0
  2  3  1  0  0  0  0
  2  4  1  0  0  0  0
  3 11  1  0  0  0  0
  4  5  2  0  0  0  0
  4 10  1  0  0  0  0
  5  6  1  0  0  0  0
  6  7  1  0  0  0  0
  7  8  1  0  0  0  0
  7  9  1  0  0  0  0
  9 10  1  0  0  0  0
M  END
> <Index>
11256

> <PropertyFieldDistance>
nan

$$$$
8695098
BBcorina  12272117083D 1   1.00000     0.00000 
CORINA 4.3.0 0026  30.10.2019
 14 16  0  0  0  0  0  0  0  0999 V2000
  -36.6017   -1.8204  -47.5688 C   0  0  0  0  0  0  0  0  0  0  0  0
  -36.2101   -0.3440  -47.4815 C   0  0  0  0  0  0  0  0  0  0  0  0
  -37.0226    0.4602  -48.4983 C   0  0  0  0  0  0  0  0  0  0  0  0
  -36.6309    1.9367  -48.4109 C   0  0  0  0  0  0  0  0  0  0  0  0
  -35.1392    2.0876  -48.7161 C   0  0  0  0  0  0  0  0  0  0  0  0
  -34.3268    1.2833  -47.6992 C   0  0  0  0  0  0  0  0  0  0  0  0
  -34.7185   -0.1931  -47.7866 C   0  0  0  0  0  0  0  0  0  0  0  0
  -36.4976    0.1773  -46.0720 C   0  0  0  0  0  0  0  0  0  0  0  0
  -36.1059    1.6538  -45.9846 C   0  0  0  0  0  0  0  0  0  0  0  0
  -36.3933    2.1751  -44.5752 C   0  0  0  0  0  0  0  0  0  0  0  0
  -36.0173    3.5926  -44.4913 N   0  0  0  0  0  0  0  0  0  0  0  0
  -36.9184    2.4580  -47.0014 C   0  0  0  0  0  0  0  0  0  0  0  0
  -34.6143    1.8046  -46.2898 C   0  0  0  0  0  0  0  0  0  0  0  0
  -36.3230    4.2163  -42.9287 X   0  0  0  0  0  0  0  0  0  0  0  0
  1  2  1  0  0  0  0
  2  3  1  0  0  0  0
  2  7  1  0  0  0  0
  2  8  1  0  0  0  0
  3  4  1  0  0  0  0
  4  5  1  0  0  0  0
  4 12  1  0  0  0  0
  5  6  1  0  0  0  0
  6  7  1  0  0  0  0
  6 13  1  0  0  0  0
  8  9  1  0  0  0  0
  9 10  1  0  0  0  0
  9 12  1  0  0  0  0
  9 13  1  0  0  0  0
 10 11  1  0  0  0  0
 11 14  1  0  0  0  0
M  END
> <Index>
11275

> <PropertyFieldDistance>
nan

$$$$
8686484
BBcorina  12272117083D 1   1.00000     0.00000 
CORINA 4.3.0 0026  30.10.2019
  9  9  0  0  0  0  0  0  0  0999 V2000
  -34.0462    5.5083  -42.2905 O   0  0  0  0  0  0  0  0  0  0  0  0
  -34.9966    4.4555  -42.4649 C   0  0  0  0  0  0  0  0  0  0  0  0
  -36.4272    5.0341  -42.5584 C   0  0  0  0  0  0  0  0  0  0  0  0
  -37.0856    4.1550  -43.6512 C   0  0  0  0  0  0  0  0  0  0  0  0
  -35.9821    3.9324  -44.6243 N   0  0  0  0  0  0  0  0  0  0  0  0
  -34.7628    3.7415  -43.8091 C   0  0  0  0  0  0  0  0  0  0  0  0
  -34.9058    3.4946  -41.3534 C   0  0  0  0  0  0  0  0  0  0  0  0
  -34.8334    2.7282  -40.4670 C   0  0  0  0  0  0  0  0  0  0  0  0
  -36.2866    2.5626  -45.6013 X   0  0  0  0  0  0  0  0  0  0  0  0
  1  2  1  0  0  0  0
  2  3  1  0  0  0  0
  2  6  1  0  0  0  0
  2  7  1  0  0  0  0
  3  4  1  0  0  0  0
  4  5  1  0  0  0  0
  5  6  1  0  0  0  0
  5  9  1  0  0  0  0
  7  8  3  0  0  0  0
M  END
> <Index>
11287

> <PropertyFieldDistance>
nan

$$$$
8687112
BBcorina  12272117083D 1   1.00000     0.00000 
CORINA 4.3.0 0026  30.10.2019
 12 13  0  0  0  0  0  0  0  0999 V2000
  -36.0194    3.9412  -44.5845 N   0  0  0  0  0  0  0  0  0  0  0  0
  -36.9723    4.0084  -43.4693 C   0  0  0  0  0  0  0  0  0  0  0  0
  -36.6796    5.2477  -42.6204 C   0  0  0  0  0  0  0  0  0  0  0  0
  -35.2463    5.1684  -42.0875 C   0  0  0  0  0  0  0  0  0  0  0  0
  -34.2763    5.0495  -43.2663 C   0  0  0  0  0  0  0  0  0  0  0  0
  -34.6397    3.8168  -44.0972 C   0  0  0  0  0  0  0  0  0  0  0  0
  -34.9273    6.4335  -41.2883 C   0  0  0  0  0  0  0  0  0  0  0  0
  -35.8969    6.5862  -40.0848 C   0  0  0  0  0  0  0  0  0  0  0  0
  -35.0145    7.3873  -39.0947 C   0  0  0  0  0  0  0  0  0  0  0  0
  -33.6843    6.8769  -39.2809 O   0  0  0  0  0  0  0  0  0  0  0  0
  -33.5556    6.3111  -40.5905 C   0  0  0  0  0  0  0  0  0  0  0  0
  -36.4111    2.6615  -45.6490 X   0  0  0  0  0  0  0  0  0  0  0  0
  1  2  1  0  0  0  0
  1  6  1  0  0  0  0
  1 12  1  0  0  0  0
  2  3  1  0  0  0  0
  3  4  1  0  0  0  0
  4  5  1  0  0  0  0
  4  7  1  0  0  0  0
  5  6  1  0  0  0  0
  7  8  1  0  0  0  0
  7 11  1  0  0  0  0
  8  9  1  0  0  0  0
  9 10  1  0  0  0  0
 10 11  1  0  0  0  0
M  END
> <Index>
11292

> <PropertyFieldDistance>
nan

$$$$
16952822
BBcorina  12272117083D 1   1.00000     0.00000 
CORINA 4.3.0 0026  30.10.2019
 13 13  0  0  0  0  0  0  0  0999 V2000
  -33.7329    1.3496  -45.2564 C   0  0  0  0  0  0  0  0  0  0  0  0
  -34.6420    1.9514  -46.3300 C   0  0  0  0  0  0  0  0  0  0  0  0
  -36.1057    1.6528  -45.9862 C   0  0  0  0  0  0  0  0  0  0  0  0
  -36.3935    2.1757  -44.5742 C   0  0  0  0  0  0  0  0  0  0  0  0
  -36.0173    3.5932  -44.4908 N   0  0  0  0  0  0  0  0  0  0  0  0
  -37.0156    2.3647  -46.9856 C   0  0  0  0  0  0  0  0  0  0  0  0
  -38.4721    1.9634  -46.7642 C   0  0  0  0  0  0  0  0  0  0  0  0
  -39.1304    1.6152  -48.0989 C   0  0  0  0  0  0  0  0  0  0  0  0
  -38.3344    0.5332  -48.8257 C   0  0  0  0  0  0  0  0  0  0  0  0
  -37.9022   -0.5577  -47.8469 C   0  0  0  0  0  0  0  0  0  0  0  0
  -36.4357   -0.3542  -47.4629 C   0  0  0  0  0  0  0  0  0  0  0  0
  -36.3390    0.1441  -46.0229 C   0  0  0  0  0  0  0  0  0  0  0  0
  -36.1680    4.1740  -42.8895 X   0  0  0  0  0  0  0  0  0  0  0  0
  1  2  1  0  0  0  0
  2  3  1  0  0  0  0
  3  4  1  0  0  0  0
  3  6  1  0  0  0  0
  3 12  1  0  0  0  0
  4  5  1  0  0  0  0
  5 13  1  0  0  0  0
  6  7  1  0  0  0  0
  7  8  1  0  0  0  0
  8  9  1  0  0  0  0
  9 10  1  0  0  0  0
 10 11  1  0  0  0  0
 11 12  1  0  0  0  0
M  END
> <Index>
11321

> <PropertyFieldDistance>
nan

$$$$
16920026
BBcorina  12272117083D 1   1.00000     0.00000 
CORINA 4.3.0 0026  30.10.2019
 12 12  0  0  0  0  0  0  0  0999 V2000
  -36.5481    0.1813  -46.0174 C   0  0  0  0  0  0  0  0  0  0  0  0
  -36.1049    1.6477  -45.9937 C   0  0  0  0  0  0  0  0  0  0  0  0
  -36.3944    2.1783  -44.5690 C   0  0  0  0  0  0  0  0  0  0  0  0
  -36.0173    3.5957  -44.4885 N   0  0  0  0  0  0  0  0  0  0  0  0
  -34.5851    1.7105  -46.1828 C   0  0  0  0  0  0  0  0  0  0  0  0
  -34.1798    2.6332  -47.3382 C   0  0  0  0  0  0  0  0  0  0  0  0
  -33.7516    1.7580  -48.5313 C   0  0  0  0  0  0  0  0  0  0  0  0
  -34.9627    1.1775  -49.2460 C   0  0  0  0  0  0  0  0  0  0  0  0
  -36.0840    2.2099  -49.3263 C   0  0  0  0  0  0  0  0  0  0  0  0
  -37.1735    1.8560  -48.3129 C   0  0  0  0  0  0  0  0  0  0  0  0
  -36.9028    2.4902  -46.9620 C   0  0  0  0  0  0  0  0  0  0  0  0
  -36.4636    4.2637  -42.9790 X   0  0  0  0  0  0  0  0  0  0  0  0
  1  2  1  0  0  0  0
  2  3  1  0  0  0  0
  2  5  1  0  0  0  0
  2 11  1  0  0  0  0
  3  4  1  0  0  0  0
  4 12  1  0  0  0  0
  5  6  1  0  0  0  0
  6  7  1  0  0  0  0
  7  8  1  0  0  0  0
  8  9  1  0  0  0  0
  9 10  1  0  0  0  0
 10 11  1  0  0  0  0
M  END
> <Index>
11322

> <PropertyFieldDistance>
nan

$$$$
17793522
BBcorina  12272117083D 1   1.00000     0.00000 
CORINA 4.3.0 0026  30.10.2019
 14 15  0  0  0  0  0  0  0  0999 V2000
  -33.3324    6.5740  -44.9499 C   0  0  0  0  0  0  0  0  0  0  0  0
  -33.0112    5.7400  -43.7081 C   0  0  0  0  0  0  0  0  0  0  0  0
  -32.5285    6.6609  -42.5848 C   0  0  0  0  0  0  0  0  0  0  0  0
  -32.2424    5.8631  -41.3856 N   0  0  0  0  0  0  0  0  0  0  0  0
  -33.4492    5.1824  -40.8993 C   0  0  0  0  0  0  0  0  0  0  0  0
  -33.9592    4.2173  -41.9722 C   0  0  0  0  0  0  0  0  0  0  0  0
  -34.2701    5.0010  -43.2496 C   0  0  0  0  0  0  0  0  0  0  0  0
  -35.3832    6.0134  -42.9692 C   0  0  0  0  0  0  0  0  0  0  0  0
  -36.6555    5.2624  -42.5664 C   0  0  0  0  0  0  0  0  0  0  0  0
  -37.0428    4.2900  -43.6827 C   0  0  0  0  0  0  0  0  0  0  0  0
  -35.9453    3.3415  -43.9109 N   0  0  0  0  0  0  0  0  0  0  0  0
  -36.3355    2.3078  -44.8790 C   0  0  0  0  0  0  0  0  0  0  0  0
  -34.7255    4.0350  -44.3446 C   0  0  0  0  0  0  0  0  0  0  0  0
  -31.5473    6.8297  -40.1581 X   0  0  0  0  0  0  0  0  0  0  0  0
  1  2  1  0  0  0  0
  2  3  1  0  0  0  0
  2  7  1  0  0  0  0
  3  4  1  0  0  0  0
  4  5  1  0  0  0  0
  4 14  1  0  0  0  0
  5  6  1  0  0  0  0
  6  7  1  0  0  0  0
  7  8  1  0  0  0  0
  7 13  1  0  0  0  0
  8  9  1  0  0  0  0
  9 10  1  0  0  0  0
 10 11  1  0  0  0  0
 11 12  1  0  0  0  0
 11 13  1  0  0  0  0
M  END
> <Index>
11346

> <PropertyFieldDistance>
nan

$$$$
12433826
BBcorina  12272117083D 1   1.00000     0.00000 
CORINA 4.3.0 0026  30.10.2019
 12 12  0  0  0  0  0  0  0  0999 V2000
  -37.0212    2.9896  -46.8894 C   0  0  0  0  0  0  0  0  0  0  0  0
  -36.9282    1.9260  -45.7934 C   0  0  0  0  0  0  0  0  0  0  0  0
  -36.7710    0.5457  -46.4344 C   0  0  0  0  0  0  0  0  0  0  0  0
  -38.1184    1.9513  -45.0028 O   0  0  0  0  0  0  0  0  0  0  0  0
  -35.7183    2.2157  -44.9030 C   0  0  0  0  0  0  0  0  0  0  0  0
  -35.7686    3.6112  -44.4471 N   0  0  0  0  0  0  0  0  0  0  0  0
  -37.0157    3.8777  -43.6855 C   0  0  0  0  0  0  0  0  0  0  0  0
  -36.6678    5.1475  -42.8687 C   0  0  0  0  0  0  0  0  0  0  0  0
  -35.1885    4.9163  -42.4836 C   0  0  0  0  0  0  0  0  0  0  0  0
  -34.6573    3.9053  -43.5166 C   0  0  0  0  0  0  0  0  0  0  0  0
  -34.4366    6.1754  -42.5690 N   0  0  0  0  0  0  0  0  0  0  0  0
  -34.5821    6.8717  -44.1241 X   0  0  0  0  0  0  0  0  0  0  0  0
  1  2  1  0  0  0  0
  2  3  1  0  0  0  0
  2  4  1  0  0  0  0
  2  5  1  0  0  0  0
  5  6  1  0  0  0  0
  6  7  1  0  0  0  0
  6 10  1  0  0  0  0
  7  8  1  0  0  0  0
  8  9  1  0  0  0  0
  9 10  1  0  0  0  0
  9 11  1  0  0  0  0
 11 12  1  0  0  0  0
M  END
> <Index>
11353

> <PropertyFieldDistance>
nan

$$$$
12365364
BBcorina  12272117083D 1   1.00000     0.00000 
CORINA 4.3.0 0026  30.10.2019
 12 12  0  0  0  0  0  0  0  0999 V2000
  -37.0212    2.9896  -46.8894 C   0  0  0  0  0  0  0  0  0  0  0  0
  -36.9282    1.9260  -45.7934 C   0  0  0  0  0  0  0  0  0  0  0  0
  -36.7710    0.5457  -46.4344 C   0  0  0  0  0  0  0  0  0  0  0  0
  -38.1184    1.9513  -45.0028 O   0  0  0  0  0  0  0  0  0  0  0  0
  -35.7183    2.2157  -44.9030 C   0  0  0  0  0  0  0  0  0  0  0  0
  -35.7686    3.6112  -44.4471 N   0  0  0  0  0  0  0  0  0  0  0  0
  -37.0157    3.8777  -43.6855 C   0  0  0  0  0  0  0  0  0  0  0  0
  -36.6678    5.1475  -42.8687 C   0  0  0  0  0  0  0  0  0  0  0  0
  -35.1885    4.9163  -42.4836 C   0  0  0  0  0  0  0  0  0  0  0  0
  -34.6573    3.9053  -43.5166 C   0  0  0  0  0  0  0  0  0  0  0  0
  -34.4366    6.1754  -42.5690 N   0  0  0  0  0  0  0  0  0  0  0  0
  -34.5821    6.8717  -44.1241 X   0  0  0  0  0  0  0  0  0  0  0  0
  1  2  1  0  0  0  0
  2  3  1  0  0  0  0
  2  4  1  0  0  0  0
  2  5  1  0  0  0  0
  5  6  1  0  0  0  0
  6  7  1  0  0  0  0
  6 10  1  0  0  0  0
  7  8  1  0  0  0  0
  8  9  1  0  0  0  0
  9 10  1  0  0  0  0
  9 11  1  0  0  0  0
 11 12  1  0  0  0  0
M  END
> <Index>
11354

> <PropertyFieldDistance>
nan

$$$$
8761422
BBcorina  12272117083D 1   1.00000     0.00000 
CORINA 4.3.0 0026  30.10.2019
 10 10  0  0  0  0  0  0  0  0999 V2000
  -34.9460    6.5579  -41.3957 C   0  0  0  0  0  0  0  0  0  0  0  0
  -35.3532    5.8831  -42.7070 C   0  0  0  0  0  0  0  0  0  0  0  0
  -36.6587    5.1099  -42.5007 C   0  0  0  0  0  0  0  0  0  0  0  0
  -37.0290    4.3869  -43.7977 C   0  0  0  0  0  0  0  0  0  0  0  0
  -35.9480    3.4664  -44.1723 N   0  0  0  0  0  0  0  0  0  0  0  0
  -34.6958    4.1917  -44.4226 C   0  0  0  0  0  0  0  0  0  0  0  0
  -34.2558    4.9088  -43.1443 C   0  0  0  0  0  0  0  0  0  0  0  0
  -34.0171    3.8796  -42.0377 C   0  0  0  0  0  0  0  0  0  0  0  0
  -32.9624    5.6812  -43.4113 C   0  0  0  0  0  0  0  0  0  0  0  0
  -36.3899    2.5211  -45.5270 X   0  0  0  0  0  0  0  0  0  0  0  0
  1  2  1  0  0  0  0
  2  3  1  0  0  0  0
  2  7  1  0  0  0  0
  3  4  1  0  0  0  0
  4  5  1  0  0  0  0
  5  6  1  0  0  0  0
  5 10  1  0  0  0  0
  6  7  1  0  0  0  0
  7  8  1  0  0  0  0
  7  9  1  0  0  0  0
M  END
> <Index>
11364

> <PropertyFieldDistance>
nan

$$$$
11678554
BBcorina  12272117083D 1   1.00000     0.00000 
CORINA 4.3.0 0026  30.10.2019
  8  9  0  0  0  0  0  0  0  0999 V2000
  -36.0277    3.5049  -44.2734 N   0  0  0  0  0  0  0  0  0  0  0  0
  -36.9936    4.5048  -43.8455 C   0  0  0  0  0  0  0  0  0  0  0  0
  -36.6304    4.9550  -42.4257 C   0  0  0  0  0  0  0  0  0  0  0  0
  -35.3902    5.8485  -42.5059 C   0  0  0  0  0  0  0  0  0  0  0  0
  -34.2875    5.1238  -43.2793 C   0  0  0  0  0  0  0  0  0  0  0  0
  -34.2826    5.3325  -44.8009 C   0  0  0  0  0  0  0  0  0  0  0  0
  -34.6481    3.9750  -44.2138 C   0  0  0  0  0  0  0  0  0  0  0  0
  -36.4196    2.9521  -45.8434 X   0  0  0  0  0  0  0  0  0  0  0  0
  1  2  1  0  0  0  0
  1  7  1  0  0  0  0
  1  8  1  0  0  0  0
  2  3  1  0  0  0  0
  3  4  1  0  0  0  0
  4  5  1  0  0  0  0
  5  6  1  0  0  0  0
  5  7  1  0  0  0  0
  6  7  1  0  0  0  0
M  END
> <Index>
11379

> <PropertyFieldDistance>
nan

$$$$
16522320
BBcorina  12272117083D 1   1.00000     0.00000 
CORINA 4.3.0 0026  30.10.2019
  9  9  0  0  0  0  0  0  0  0999 V2000
  -31.8210    4.6847  -40.7376 O   0  0  0  0  0  0  0  0  0  0  0  0
  -32.5929    4.8716  -41.9256 C   0  0  0  0  0  0  0  0  0  0  0  0
  -34.0823    4.8033  -41.5822 C   0  0  0  0  0  0  0  0  0  0  0  0
  -34.9087    5.0034  -42.8542 C   0  0  0  0  0  0  0  0  0  0  0  0
  -36.4203    5.0032  -42.5302 C   0  0  0  0  0  0  0  0  0  0  0  0
  -37.0792    4.2273  -43.6856 C   0  0  0  0  0  0  0  0  0  0  0  0
  -35.9998    3.8418  -44.6205 N   0  0  0  0  0  0  0  0  0  0  0  0
  -34.7584    3.7908  -43.8067 C   0  0  0  0  0  0  0  0  0  0  0  0
  -36.3244    2.3246  -45.3392 X   0  0  0  0  0  0  0  0  0  0  0  0
  1  2  1  0  0  0  0
  2  3  1  0  0  0  0
  3  4  1  0  0  0  0
  4  5  1  0  0  0  0
  4  8  1  0  0  0  0
  5  6  1  0  0  0  0
  6  7  1  0  0  0  0
  7  8  1  0  0  0  0
  7  9  1  0  0  0  0
M  END
> <Index>
11385

> <PropertyFieldDistance>
nan

$$$$
9449722
BBcorina  12272117083D 1   1.00000     0.00000 
CORINA 4.3.0 0026  30.10.2019
 10 10  0  0  0  0  0  0  0  0999 V2000
  -35.8047    6.8918  -43.2937 C   0  0  0  0  0  0  0  0  0  0  0  0
  -36.0378    5.9463  -42.1137 C   0  0  0  0  0  0  0  0  0  0  0  0
  -36.3892    6.7633  -40.8686 C   0  0  0  0  0  0  0  0  0  0  0  0
  -37.2093    4.9831  -42.4470 C   0  0  0  0  0  0  0  0  0  0  0  0
  -37.0087    4.3988  -43.7631 C   0  0  0  0  0  0  0  0  0  0  0  0
  -35.8204    3.5482  -43.9063 N   0  0  0  0  0  0  0  0  0  0  0  0
  -34.8030    4.4031  -44.5007 C   0  0  0  0  0  0  0  0  0  0  0  0
  -33.7459    4.7305  -43.4206 C   0  0  0  0  0  0  0  0  0  0  0  0
  -34.5456    5.0001  -41.8033 S   0  0  0  0  0  0  0  0  0  0  0  0
  -36.1486    2.2000  -44.9058 X   0  0  0  0  0  0  0  0  0  0  0  0
  1  2  1  0  0  0  0
  2  3  1  0  0  0  0
  2  4  1  0  0  0  0
  2  9  1  0  0  0  0
  4  5  1  0  0  0  0
  5  6  1  0  0  0  0
  6  7  1  0  0  0  0
  6 10  1  0  0  0  0
  7  8  1  0  0  0  0
  8  9  1  0  0  0  0
M  END
> <Index>
11387

> <PropertyFieldDistance>
nan

$$$$
13206584
BBcorina  12272117083D 1   1.00000     0.00000 
CORINA 4.3.0 0026  30.10.2019
 13 14  0  0  0  0  0  0  0  0999 V2000
  -36.7269   -0.2117  -47.8719 C   0  0  0  0  0  0  0  0  0  0  0  0
  -36.7076    0.8511  -46.8036 C   0  0  0  0  0  0  0  0  0  0  0  0
  -37.6648    1.6781  -46.5350 N   0  0  0  0  0  0  0  0  0  0  0  0
  -37.4862    2.5061  -45.6009 N   0  0  0  0  0  0  0  0  0  0  0  0
  -36.3425    2.4769  -44.9784 C   0  0  0  0  0  0  0  0  0  0  0  0
  -35.3716    1.1930  -45.7023 S   0  0  0  0  0  0  0  0  0  0  0  0
  -35.9572    3.3053  -43.9349 N   0  0  0  0  0  0  0  0  0  0  0  0
  -37.0245    4.2570  -43.5962 C   0  0  0  0  0  0  0  0  0  0  0  0
  -36.5921    5.0971  -42.3922 C   0  0  0  0  0  0  0  0  0  0  0  0
  -35.3436    5.8026  -42.7133 N   0  0  0  0  0  0  0  0  0  0  0  0
  -34.2763    4.8509  -43.0519 C   0  0  0  0  0  0  0  0  0  0  0  0
  -34.7087    4.0108  -44.2560 C   0  0  0  0  0  0  0  0  0  0  0  0
  -34.8685    6.8239  -41.4266 X   0  0  0  0  0  0  0  0  0  0  0  0
  1  2  1  0  0  0  0
  2  3  2  0  0  0  0
  2  6  1  0  0  0  0
  3  4  1  0  0  0  0
  4  5  2  0  0  0  0
  5  6  1  0  0  0  0
  5  7  1  0  0  0  0
  7  8  1  0  0  0  0
  7 12  1  0  0  0  0
  8  9  1  0  0  0  0
  9 10  1  0  0  0  0
 10 11  1  0  0  0  0
 10 13  1  0  0  0  0
 11 12  1  0  0  0  0
M  END
> <Index>
11430

> <PropertyFieldDistance>
nan

$$$$
8804696
BBcorina  12272117083D 1   1.00000     0.00000 
CORINA 4.3.0 0026  30.10.2019
 13 14  0  0  0  0  0  0  0  0999 V2000
  -34.9461    6.5597  -41.3972 C   0  0  0  0  0  0  0  0  0  0  0  0
  -35.3532    5.8832  -42.7078 C   0  0  0  0  0  0  0  0  0  0  0  0
  -36.6587    5.1101  -42.5007 C   0  0  0  0  0  0  0  0  0  0  0  0
  -37.0288    4.3870  -43.7976 C   0  0  0  0  0  0  0  0  0  0  0  0
  -35.9478    3.4663  -44.1723 N   0  0  0  0  0  0  0  0  0  0  0  0
  -34.6956    4.1917  -44.4228 C   0  0  0  0  0  0  0  0  0  0  0  0
  -34.2564    4.9085  -43.1443 C   0  0  0  0  0  0  0  0  0  0  0  0
  -32.9630    5.6808  -43.4098 C   0  0  0  0  0  0  0  0  0  0  0  0
  -31.8672    4.7060  -43.8457 C   0  0  0  0  0  0  0  0  0  0  0  0
  -31.6299    3.6769  -42.7386 C   0  0  0  0  0  0  0  0  0  0  0  0
  -32.9238    2.9044  -42.4740 C   0  0  0  0  0  0  0  0  0  0  0  0
  -34.0194    3.8792  -42.0376 C   0  0  0  0  0  0  0  0  0  0  0  0
  -36.3899    2.5214  -45.5272 X   0  0  0  0  0  0  0  0  0  0  0  0
  1  2  1  0  0  0  0
  2  3  1  0  0  0  0
  2  7  1  0  0  0  0
  3  4  1  0  0  0  0
  4  5  1  0  0  0  0
  5  6  1  0  0  0  0
  5 13  1  0  0  0  0
  6  7  1  0  0  0  0
  7  8  1  0  0  0  0
  7 12  1  0  0  0  0
  8  9  1  0  0  0  0
  9 10  1  0  0  0  0
 10 11  1  0  0  0  0
 11 12  1  0  0  0  0
M  END
> <Index>
11433

> <PropertyFieldDistance>
nan

$$$$
15750790
BBcorina  12272117083D 1   1.00000     0.00000 
CORINA 4.3.0 0026  30.10.2019
 12 13  0  0  0  0  0  0  0  0999 V2000
  -36.2455    2.2411  -44.2959 C   0  0  0  0  0  0  0  0  0  0  0  0
  -36.4167    3.6407  -44.6932 N   0  0  0  0  0  0  0  0  0  0  0  0
  -36.3845    4.1374  -46.0048 N   0  0  0  0  0  0  0  0  0  0  0  0
  -36.5717    5.4338  -45.9580 C   0  0  0  0  0  0  0  0  0  0  0  0
  -36.7333    5.7994  -44.6237 C   0  0  0  0  0  0  0  0  0  0  0  0
  -36.9766    7.1787  -44.0637 C   0  0  0  0  0  0  0  0  0  0  0  0
  -37.4951    7.0330  -42.6277 C   0  0  0  0  0  0  0  0  0  0  0  0
  -36.5769    6.0901  -41.8456 C   0  0  0  0  0  0  0  0  0  0  0  0
  -36.7534    4.6573  -42.3631 C   0  0  0  0  0  0  0  0  0  0  0  0
  -36.6354    4.6768  -43.8667 C   0  0  0  0  0  0  0  0  0  0  0  0
  -36.9233    6.1413  -40.4189 N   0  0  0  0  0  0  0  0  0  0  0  0
  -36.0256    7.3536  -39.6135 X   0  0  0  0  0  0  0  0  0  0  0  0
  1  2  1  0  0  0  0
  2  3  1  0  0  0  0
  2 10  1  0  0  0  0
  3  4  2  0  0  0  0
  4  5  1  0  0  0  0
  5  6  1  0  0  0  0
  5 10  2  0  0  0  0
  6  7  1  0  0  0  0
  7  8  1  0  0  0  0
  8  9  1  0  0  0  0
  8 11  1  0  0  0  0
  9 10  1  0  0  0  0
 11 12  1  0  0  0  0
M  END
> <Index>
11436

> <PropertyFieldDistance>
nan

$$$$
16630550
BBcorina  12272117083D 1   1.00000     0.00000 
CORINA 4.3.0 0026  30.10.2019
 13 14  0  0  0  0  0  0  0  0999 V2000
  -36.8755    1.7166  -45.3499 C   0  0  0  0  0  0  0  0  0  0  0  0
  -35.7051    2.4053  -44.6451 C   0  0  0  0  0  0  0  0  0  0  0  0
  -35.8632    3.8584  -44.7422 N   0  0  0  0  0  0  0  0  0  0  0  0
  -35.3678    4.6770  -45.7683 N   0  0  0  0  0  0  0  0  0  0  0  0
  -35.7114    5.9149  -45.5084 C   0  0  0  0  0  0  0  0  0  0  0  0
  -36.4315    5.9225  -44.3161 C   0  0  0  0  0  0  0  0  0  0  0  0
  -37.0392    7.1077  -43.6081 C   0  0  0  0  0  0  0  0  0  0  0  0
  -38.0627    6.5902  -42.5899 C   0  0  0  0  0  0  0  0  0  0  0  0
  -37.4239    5.4913  -41.7363 C   0  0  0  0  0  0  0  0  0  0  0  0
  -37.2091    4.2373  -42.5926 C   0  0  0  0  0  0  0  0  0  0  0  0
  -36.5091    4.6444  -43.8650 C   0  0  0  0  0  0  0  0  0  0  0  0
  -38.4927    7.6955  -41.7231 N   0  0  0  0  0  0  0  0  0  0  0  0
  -39.8548    8.4944  -42.3792 X   0  0  0  0  0  0  0  0  0  0  0  0
  1  2  1  0  0  0  0
  2  3  1  0  0  0  0
  3  4  1  0  0  0  0
  3 11  1  0  0  0  0
  4  5  2  0  0  0  0
  5  6  1  0  0  0  0
  6  7  1  0  0  0  0
  6 11  2  0  0  0  0
  7  8  1  0  0  0  0
  8  9  1  0  0  0  0
  8 12  1  0  0  0  0
  9 10  1  0  0  0  0
 10 11  1  0  0  0  0
 12 13  1  0  0  0  0
M  END
> <Index>
11437

> <PropertyFieldDistance>
nan

$$$$
9395724
BBcorina  12272117083D 1   1.00000     0.00000 
CORINA 4.3.0 0026  30.10.2019
  6  6  0  0  0  0  0  0  0  0999 V2000
  -36.8159    3.7814  -41.4382 C   0  0  0  0  0  0  0  0  0  0  0  0
  -36.4760    4.7969  -42.5309 C   0  0  0  0  0  0  0  0  0  0  0  0
  -37.1869    4.5279  -43.8695 C   0  0  0  0  0  0  0  0  0  0  0  0
  -36.0008    3.7170  -44.2231 N   0  0  0  0  0  0  0  0  0  0  0  0
  -35.1640    4.4901  -43.2754 C   0  0  0  0  0  0  0  0  0  0  0  0
  -35.5227    4.0030  -45.8398 X   0  0  0  0  0  0  0  0  0  0  0  0
  1  2  1  0  0  0  0
  2  3  1  0  0  0  0
  2  5  1  0  0  0  0
  3  4  1  0  0  0  0
  4  5  1  0  0  0  0
  4  6  1  0  0  0  0
M  END
> <Index>
11445

> <PropertyFieldDistance>
nan

$$$$
13603048
BBcorina  12272117083D 1   1.00000     0.00000 
CORINA 4.3.0 0026  30.10.2019
 13 14  0  0  0  0  0  0  0  0999 V2000
  -35.9479    3.4664  -44.1722 N   0  0  0  0  0  0  0  0  0  0  0  0
  -37.0290    4.3869  -43.7978 C   0  0  0  0  0  0  0  0  0  0  0  0
  -36.6587    5.1099  -42.5007 C   0  0  0  0  0  0  0  0  0  0  0  0
  -35.3534    5.8832  -42.7080 C   0  0  0  0  0  0  0  0  0  0  0  0
  -34.2558    4.9088  -43.1443 C   0  0  0  0  0  0  0  0  0  0  0  0
  -34.6958    4.1916  -44.4227 C   0  0  0  0  0  0  0  0  0  0  0  0
  -34.9459    6.5588  -41.3971 C   0  0  0  0  0  0  0  0  0  0  0  0
  -33.6726    7.4124  -41.5877 C   0  0  0  0  0  0  0  0  0  0  0  0
  -33.8598    8.5912  -40.7337 N   0  0  0  0  0  0  0  0  0  0  0  0
  -35.1487    8.7394  -40.3820 C   0  0  0  0  0  0  0  0  0  0  0  0
  -35.5804    9.6343  -39.6865 O   0  0  0  0  0  0  0  0  0  0  0  0
  -35.9829    7.6269  -40.9792 C   0  0  0  0  0  0  0  0  0  0  0  0
  -36.3897    2.5209  -45.5268 X   0  0  0  0  0  0  0  0  0  0  0  0
  1  2  1  0  0  0  0
  1  6  1  0  0  0  0
  1 13  1  0  0  0  0
  2  3  1  0  0  0  0
  3  4  1  0  0  0  0
  4  5  1  0  0  0  0
  4  7  1  0  0  0  0
  5  6  1  0  0  0  0
  7  8  1  0  0  0  0
  7 12  1  0  0  0  0
  8  9  1  0  0  0  0
  9 10  1  0  0  0  0
 10 11  2  0  0  0  0
 10 12  1  0  0  0  0
M  END
> <Index>
11454

> <PropertyFieldDistance>
nan

$$$$
8861298
BBcorina  12272117083D 1   1.00000     0.00000 
CORINA 4.3.0 0026  30.10.2019
 11 11  0  0  0  0  0  0  0  0999 V2000
  -36.4517    2.3544  -45.9925 C   0  0  0  0  0  0  0  0  0  0  0  0
  -36.0828    1.9808  -44.5554 C   0  0  0  0  0  0  0  0  0  0  0  0
  -34.8184    1.1194  -44.5610 C   0  0  0  0  0  0  0  0  0  0  0  0
  -35.8387    3.2036  -43.7788 N   0  0  0  0  0  0  0  0  0  0  0  0
  -37.0009    4.0998  -43.8293 C   0  0  0  0  0  0  0  0  0  0  0  0
  -36.7693    5.2903  -42.8960 C   0  0  0  0  0  0  0  0  0  0  0  0
  -35.5063    6.0373  -43.3328 C   0  0  0  0  0  0  0  0  0  0  0  0
  -34.3198    5.0694  -43.3179 C   0  0  0  0  0  0  0  0  0  0  0  0
  -34.6221    3.8853  -44.2390 C   0  0  0  0  0  0  0  0  0  0  0  0
  -33.1142    5.7631  -43.7904 N   0  0  0  0  0  0  0  0  0  0  0  0
  -33.3284    6.3484  -45.3827 X   0  0  0  0  0  0  0  0  0  0  0  0
  1  2  1  0  0  0  0
  2  3  1  0  0  0  0
  2  4  1  0  0  0  0
  4  5  1  0  0  0  0
  4  9  1  0  0  0  0
  5  6  1  0  0  0  0
  6  7  1  0  0  0  0
  7  8  1  0  0  0  0
  8  9  1  0  0  0  0
  8 10  1  0  0  0  0
 10 11  1  0  0  0  0
M  END
> <Index>
11458

> <PropertyFieldDistance>
nan

$$$$
8860160
BBcorina  12272117083D 1   1.00000     0.00000 
CORINA 4.3.0 0026  30.10.2019
 13 14  0  0  0  0  0  0  0  0999 V2000
  -36.0035    3.5627  -44.2984 N   0  0  0  0  0  0  0  0  0  0  0  0
  -36.9617    4.5761  -43.8281 C   0  0  0  0  0  0  0  0  0  0  0  0
  -36.6472    4.9028  -42.3650 C   0  0  0  0  0  0  0  0  0  0  0  0
  -35.2273    5.2093  -42.2173 N   0  0  0  0  0  0  0  0  0  0  0  0
  -34.3093    4.8555  -43.1227 C   0  0  0  0  0  0  0  0  0  0  0  0
  -33.1456    5.1186  -42.9039 O   0  0  0  0  0  0  0  0  0  0  0  0
  -34.6588    4.1453  -44.3999 C   0  0  0  0  0  0  0  0  0  0  0  0
  -34.8084    5.8982  -41.0759 C   0  0  0  0  0  0  0  0  0  0  0  0
  -35.6202    6.4060  -40.1372 C   0  0  0  0  0  0  0  0  0  0  0  0
  -34.9716    7.0475  -39.0954 C   0  0  0  0  0  0  0  0  0  0  0  0
  -33.6419    7.0669  -39.1868 C   0  0  0  0  0  0  0  0  0  0  0  0
  -33.1351    6.2316  -40.6490 S   0  0  0  0  0  0  0  0  0  0  0  0
  -36.4984    2.8992  -45.7948 X   0  0  0  0  0  0  0  0  0  0  0  0
  1  2  1  0  0  0  0
  1  7  1  0  0  0  0
  1 13  1  0  0  0  0
  2  3  1  0  0  0  0
  3  4  1  0  0  0  0
  4  5  1  0  0  0  0
  4  8  1  0  0  0  0
  5  6  2  0  0  0  0
  5  7  1  0  0  0  0
  8  9  2  0  0  0  0
  8 12  1  0  0  0  0
  9 10  1  0  0  0  0
 10 11  2  0  0  0  0
 11 12  1  0  0  0  0
M  END
> <Index>
11460

> <PropertyFieldDistance>
nan

$$$$
8861304
BBcorina  12272117083D 1   1.00000     0.00000 
CORINA 4.3.0 0026  30.10.2019
 15 16  0  0  0  0  0  0  0  0999 V2000
  -37.5886    5.1087  -41.4096 C   0  0  0  0  0  0  0  0  0  0  0  0
  -36.6701    5.1394  -42.6329 C   0  0  0  0  0  0  0  0  0  0  0  0
  -36.9365    3.9085  -43.5025 C   0  0  0  0  0  0  0  0  0  0  0  0
  -36.0260    3.9204  -44.6559 N   0  0  0  0  0  0  0  0  0  0  0  0
  -36.3021    2.7929  -45.5562 C   0  0  0  0  0  0  0  0  0  0  0  0
  -36.1725    1.4988  -44.7949 C   0  0  0  0  0  0  0  0  0  0  0  0
  -37.2971    0.9154  -44.2432 C   0  0  0  0  0  0  0  0  0  0  0  0
  -37.1677   -0.2778  -43.5486 C   0  0  0  0  0  0  0  0  0  0  0  0
  -35.9049   -0.8362  -43.4261 C   0  0  0  0  0  0  0  0  0  0  0  0
  -34.8250   -0.1924  -44.0005 C   0  0  0  0  0  0  0  0  0  0  0  0
  -34.9862    0.9389  -44.6584 N   0  0  0  0  0  0  0  0  0  0  0  0
  -34.6237    3.9123  -44.2164 C   0  0  0  0  0  0  0  0  0  0  0  0
  -34.3573    5.1432  -43.3468 C   0  0  0  0  0  0  0  0  0  0  0  0
  -35.2678    5.1313  -42.1933 N   0  0  0  0  0  0  0  0  0  0  0  0
  -34.9464    6.4437  -41.1453 X   0  0  0  0  0  0  0  0  0  0  0  0
  1  2  1  0  0  0  0
  2  3  1  0  0  0  0
  2 14  1  0  0  0  0
  3  4  1  0  0  0  0
  4  5  1  0  0  0  0
  4 12  1  0  0  0  0
  5  6  1  0  0  0  0
  6  7  2  0  0  0  0
  6 11  1  0  0  0  0
  7  8  1  0  0  0  0
  8  9  2  0  0  0  0
  9 10  1  0  0  0  0
 10 11  2  0  0  0  0
 12 13  1  0  0  0  0
 13 14  1  0  0  0  0
 14 15  1  0  0  0  0
M  END
> <Index>
11462

> <PropertyFieldDistance>
nan

$$$$
9875790
BBcorina  12272117083D 1   1.00000     0.00000 
CORINA 4.3.0 0026  30.10.2019
 10 10  0  0  0  0  0  0  0  0999 V2000
  -36.3359    2.2780  -44.8744 C   0  0  0  0  0  0  0  0  0  0  0  0
  -35.9938    3.4932  -44.1312 N   0  0  0  0  0  0  0  0  0  0  0  0
  -36.9618    4.1607  -43.4792 C   0  0  0  0  0  0  0  0  0  0  0  0
  -38.1004    3.7457  -43.5073 O   0  0  0  0  0  0  0  0  0  0  0  0
  -36.6455    5.4196  -42.7144 C   0  0  0  0  0  0  0  0  0  0  0  0
  -35.2551    5.3613  -42.2385 N   0  0  0  0  0  0  0  0  0  0  0  0
  -34.3347    5.1695  -43.3695 C   0  0  0  0  0  0  0  0  0  0  0  0
  -34.7183    3.9182  -44.1156 C   0  0  0  0  0  0  0  0  0  0  0  0
  -33.8685    3.2878  -44.7072 O   0  0  0  0  0  0  0  0  0  0  0  0
  -34.8516    6.7664  -41.3514 X   0  0  0  0  0  0  0  0  0  0  0  0
  1  2  1  0  0  0  0
  2  3  1  0  0  0  0
  2  8  1  0  0  0  0
  3  4  2  0  0  0  0
  3  5  1  0  0  0  0
  5  6  1  0  0  0  0
  6  7  1  0  0  0  0
  6 10  1  0  0  0  0
  7  8  1  0  0  0  0
  8  9  2  0  0  0  0
M  END
> <Index>
11493

> <PropertyFieldDistance>
nan

$$$$
8930762
BBcorina  12272117083D 1   1.00000     0.00000 
CORINA 4.3.0 0026  30.10.2019
  9 10  0  0  0  0  0  0  0  0999 V2000
  -36.0235    3.9372  -44.5821 N   0  0  0  0  0  0  0  0  0  0  0  0
  -36.9437    3.9960  -43.4400 C   0  0  0  0  0  0  0  0  0  0  0  0
  -36.6968    5.2757  -42.6384 C   0  0  0  0  0  0  0  0  0  0  0  0
  -35.2688    5.2533  -42.0803 C   0  0  0  0  0  0  0  0  0  0  0  0
  -34.2961    5.0273  -43.2426 C   0  0  0  0  0  0  0  0  0  0  0  0
  -32.8231    5.3600  -43.0129 C   0  0  0  0  0  0  0  0  0  0  0  0
  -33.6819    6.2592  -43.9053 C   0  0  0  0  0  0  0  0  0  0  0  0
  -34.6271    3.8273  -44.1347 C   0  0  0  0  0  0  0  0  0  0  0  0
  -36.4332    2.6525  -45.6335 X   0  0  0  0  0  0  0  0  0  0  0  0
  1  2  1  0  0  0  0
  1  8  1  0  0  0  0
  1  9  1  0  0  0  0
  2  3  1  0  0  0  0
  3  4  1  0  0  0  0
  4  5  1  0  0  0  0
  5  6  1  0  0  0  0
  5  7  1  0  0  0  0
  5  8  1  0  0  0  0
  6  7  1  0  0  0  0
M  END
> <Index>
11497

> <PropertyFieldDistance>
nan

$$$$
8963300
BBcorina  12272117083D 1   1.00000     0.00000 
CORINA 4.3.0 0026  30.10.2019
 12 13  0  0  0  0  0  0  0  0999 V2000
  -36.0192    3.9413  -44.5845 N   0  0  0  0  0  0  0  0  0  0  0  0
  -36.9723    4.0087  -43.4694 C   0  0  0  0  0  0  0  0  0  0  0  0
  -36.6793    5.2476  -42.6202 C   0  0  0  0  0  0  0  0  0  0  0  0
  -35.2462    5.1676  -42.0869 C   0  0  0  0  0  0  0  0  0  0  0  0
  -34.2769    5.0496  -43.2665 C   0  0  0  0  0  0  0  0  0  0  0  0
  -34.6396    3.8165  -44.0970 C   0  0  0  0  0  0  0  0  0  0  0  0
  -34.9404    6.3786  -41.3213 N   0  0  0  0  0  0  0  0  0  0  0  0
  -34.5863    6.4181  -40.0053 C   0  0  0  0  0  0  0  0  0  0  0  0
  -34.3859    7.7064  -39.6611 C   0  0  0  0  0  0  0  0  0  0  0  0
  -34.6251    8.4911  -40.8066 C   0  0  0  0  0  0  0  0  0  0  0  0
  -34.9624    7.6524  -41.8071 C   0  0  0  0  0  0  0  0  0  0  0  0
  -36.4110    2.6621  -45.6494 X   0  0  0  0  0  0  0  0  0  0  0  0
  1  2  1  0  0  0  0
  1  6  1  0  0  0  0
  1 12  1  0  0  0  0
  2  3  1  0  0  0  0
  3  4  1  0  0  0  0
  4  5  1  0  0  0  0
  4  7  1  0  0  0  0
  5  6  1  0  0  0  0
  7  8  1  0  0  0  0
  7 11  1  0  0  0  0
  8  9  2  0  0  0  0
  9 10  1  0  0  0  0
 10 11  2  0  0  0  0
M  END
> <Index>
11502

> <PropertyFieldDistance>
nan

$$$$
8961530
BBcorina  12272117083D 1   1.00000     0.00000 
CORINA 4.3.0 0026  30.10.2019
 13 14  0  0  0  0  0  0  0  0999 V2000
  -34.9718    8.9654  -42.2693 C   0  0  0  0  0  0  0  0  0  0  0  0
  -34.7938    7.8722  -41.2475 C   0  0  0  0  0  0  0  0  0  0  0  0
  -34.4404    8.0289  -39.9575 C   0  0  0  0  0  0  0  0  0  0  0  0
  -34.3864    6.8140  -39.3916 N   0  0  0  0  0  0  0  0  0  0  0  0
  -34.6984    5.9110  -40.2804 C   0  0  0  0  0  0  0  0  0  0  0  0
  -34.9633    6.5293  -41.4514 N   0  0  0  0  0  0  0  0  0  0  0  0
  -35.3532    5.8831  -42.7070 C   0  0  0  0  0  0  0  0  0  0  0  0
  -36.6587    5.1099  -42.5007 C   0  0  0  0  0  0  0  0  0  0  0  0
  -37.0290    4.3869  -43.7977 C   0  0  0  0  0  0  0  0  0  0  0  0
  -35.9480    3.4664  -44.1723 N   0  0  0  0  0  0  0  0  0  0  0  0
  -34.6958    4.1917  -44.4226 C   0  0  0  0  0  0  0  0  0  0  0  0
  -34.2558    4.9088  -43.1443 C   0  0  0  0  0  0  0  0  0  0  0  0
  -36.3899    2.5211  -45.5270 X   0  0  0  0  0  0  0  0  0  0  0  0
  1  2  1  0  0  0  0
  2  3  2  0  0  0  0
  2  6  1  0  0  0  0
  3  4  1  0  0  0  0
  4  5  2  0  0  0  0
  5  6  1  0  0  0  0
  6  7  1  0  0  0  0
  7  8  1  0  0  0  0
  7 12  1  0  0  0  0
  8  9  1  0  0  0  0
  9 10  1  0  0  0  0
 10 11  1  0  0  0  0
 10 13  1  0  0  0  0
 11 12  1  0  0  0  0
M  END
> <Index>
11516

> <PropertyFieldDistance>
nan

$$$$
12214540
BBcorina  12272117083D 1   1.00000     0.00000 
CORINA 4.3.0 0026  30.10.2019
 10 11  0  0  0  0  0  0  0  0999 V2000
  -34.3373    4.8598  -44.8309 N   0  0  0  0  0  0  0  0  0  0  0  0
  -35.6828    4.2703  -44.8212 C   0  0  0  0  0  0  0  0  0  0  0  0
  -36.7034    5.0746  -43.9961 C   0  0  0  0  0  0  0  0  0  0  0  0
  -37.2442    3.7257  -43.4893 C   0  0  0  0  0  0  0  0  0  0  0  0
  -35.8553    3.1513  -43.7920 C   0  0  0  0  0  0  0  0  0  0  0  0
  -35.8413    1.7289  -44.3603 C   0  0  0  0  0  0  0  0  0  0  0  0
  -34.8274    0.9327  -43.5094 C   0  0  0  0  0  0  0  0  0  0  0  0
  -34.7654    1.7060  -42.1681 C   0  0  0  0  0  0  0  0  0  0  0  0
  -34.8656    3.1865  -42.6183 C   0  0  0  0  0  0  0  0  0  0  0  0
  -34.2102    6.0774  -46.0248 X   0  0  0  0  0  0  0  0  0  0  0  0
  1  2  1  0  0  0  0
  1 10  1  0  0  0  0
  2  3  1  0  0  0  0
  2  5  1  0  0  0  0
  3  4  1  0  0  0  0
  4  5  1  0  0  0  0
  5  6  1  0  0  0  0
  5  9  1  0  0  0  0
  6  7  1  0  0  0  0
  7  8  1  0  0  0  0
  8  9  1  0  0  0  0
M  END
> <Index>
11522

> <PropertyFieldDistance>
nan

$$$$
8991016
BBcorina  12272117083D 1   1.00000     0.00000 
CORINA 4.3.0 0026  30.10.2019
 10 10  0  0  0  0  0  0  0  0999 V2000
  -36.1510    8.0181  -39.7617 C   0  0  0  0  0  0  0  0  0  0  0  0
  -36.3163    7.0059  -40.7567 O   0  0  0  0  0  0  0  0  0  0  0  0
  -35.1153    6.6804  -41.4596 C   0  0  0  0  0  0  0  0  0  0  0  0
  -35.4046    5.6084  -42.4785 C   0  0  0  0  0  0  0  0  0  0  0  0
  -36.6176    5.1558  -42.5758 C   0  0  0  0  0  0  0  0  0  0  0  0
  -37.0207    4.0805  -43.5430 C   0  0  0  0  0  0  0  0  0  0  0  0
  -36.0029    3.9359  -44.5939 N   0  0  0  0  0  0  0  0  0  0  0  0
  -34.6700    3.7814  -43.9878 C   0  0  0  0  0  0  0  0  0  0  0  0
  -34.2761    5.1100  -43.3372 C   0  0  0  0  0  0  0  0  0  0  0  0
  -36.3663    2.6169  -45.6198 X   0  0  0  0  0  0  0  0  0  0  0  0
  1  2  1  0  0  0  0
  2  3  1  0  0  0  0
  3  4  1  0  0  0  0
  4  5  2  0  0  0  0
  4  9  1  0  0  0  0
  5  6  1  0  0  0  0
  6  7  1  0  0  0  0
  7  8  1  0  0  0  0
  7 10  1  0  0  0  0
  8  9  1  0  0  0  0
M  END
> <Index>
11532

> <PropertyFieldDistance>
nan

$$$$
8990722
BBcorina  12272117083D 1   1.00000     0.00000 
CORINA 4.3.0 0026  30.10.2019
  9  9  0  0  0  0  0  0  0  0999 V2000
  -34.1349    6.3200  -40.8957 C   0  0  0  0  0  0  0  0  0  0  0  0
  -34.0048    5.0286  -41.7057 C   0  0  0  0  0  0  0  0  0  0  0  0
  -34.9333    5.0924  -42.9200 C   0  0  0  0  0  0  0  0  0  0  0  0
  -36.4170    4.9364  -42.4940 C   0  0  0  0  0  0  0  0  0  0  0  0
  -37.0824    4.3543  -43.7588 C   0  0  0  0  0  0  0  0  0  0  0  0
  -36.0199    3.7159  -44.5571 N   0  0  0  0  0  0  0  0  0  0  0  0
  -34.7384    3.8564  -43.8332 C   0  0  0  0  0  0  0  0  0  0  0  0
  -33.5930    4.0951  -44.8192 C   0  0  0  0  0  0  0  0  0  0  0  0
  -36.3798    2.0705  -44.8522 X   0  0  0  0  0  0  0  0  0  0  0  0
  1  2  1  0  0  0  0
  2  3  1  0  0  0  0
  3  4  1  0  0  0  0
  3  7  1  0  0  0  0
  4  5  1  0  0  0  0
  5  6  1  0  0  0  0
  6  7  1  0  0  0  0
  6  9  1  0  0  0  0
  7  8  1  0  0  0  0
M  END
> <Index>
11534

> <PropertyFieldDistance>
nan

$$$$
9016682
BBcorina  12272117083D 1   1.00000     0.00000 
CORINA 4.3.0 0026  30.10.2019
 14 14  0  0  0  0  0  0  0  0999 V2000
  -35.5489    0.0554  -45.1866 C   0  0  0  0  0  0  0  0  0  0  0  0
  -35.2356    1.4507  -44.9353 O   0  0  0  0  0  0  0  0  0  0  0  0
  -36.2420    2.2354  -44.5063 C   0  0  0  0  0  0  0  0  0  0  0  0
  -37.3517    1.7672  -44.3461 O   0  0  0  0  0  0  0  0  0  0  0  0
  -36.0186    3.5405  -44.2544 N   0  0  0  0  0  0  0  0  0  0  0  0
  -37.1066    4.4094  -43.7857 C   0  0  0  0  0  0  0  0  0  0  0  0
  -36.6631    5.1082  -42.4966 C   0  0  0  0  0  0  0  0  0  0  0  0
  -35.3376    5.8366  -42.7497 C   0  0  0  0  0  0  0  0  0  0  0  0
  -34.2623    4.8230  -43.1474 C   0  0  0  0  0  0  0  0  0  0  0  0
  -34.6821    4.1211  -44.4428 C   0  0  0  0  0  0  0  0  0  0  0  0
  -34.9056    6.5643  -41.4750 C   0  0  0  0  0  0  0  0  0  0  0  0
  -35.9804    7.5778  -41.0770 C   0  0  0  0  0  0  0  0  0  0  0  0
  -33.6374    7.2651  -41.7171 N   0  0  0  0  0  0  0  0  0  0  0  0
  -33.8016    8.4123  -42.9744 X   0  0  0  0  0  0  0  0  0  0  0  0
  1  2  1  0  0  0  0
  2  3  1  0  0  0  0
  3  4  2  0  0  0  0
  3  5  1  0  0  0  0
  5  6  1  0  0  0  0
  5 10  1  0  0  0  0
  6  7  1  0  0  0  0
  7  8  1  0  0  0  0
  8  9  1  0  0  0  0
  8 11  1  0  0  0  0
  9 10  1  0  0  0  0
 11 12  1  0  0  0  0
 11 13  1  0  0  0  0
 13 14  1  0  0  0  0
M  END
> <Index>
11535

> <PropertyFieldDistance>
nan

$$$$
9017394
BBcorina  12272117083D 1   1.00000     0.00000 
CORINA 4.3.0 0026  30.10.2019
 11 11  0  0  0  0  0  0  0  0999 V2000
  -36.5666    7.9842  -43.3047 C   0  0  0  0  0  0  0  0  0  0  0  0
  -35.5545    6.9450  -43.7911 C   0  0  0  0  0  0  0  0  0  0  0  0
  -35.3533    5.8832  -42.7080 C   0  0  0  0  0  0  0  0  0  0  0  0
  -34.9465    6.5602  -41.3976 C   0  0  0  0  0  0  0  0  0  0  0  0
  -33.6751    7.3813  -41.6210 C   0  0  0  0  0  0  0  0  0  0  0  0
  -36.6585    5.1099  -42.5009 C   0  0  0  0  0  0  0  0  0  0  0  0
  -37.0297    4.3870  -43.7976 C   0  0  0  0  0  0  0  0  0  0  0  0
  -35.9477    3.4663  -44.1724 N   0  0  0  0  0  0  0  0  0  0  0  0
  -34.6956    4.1916  -44.4226 C   0  0  0  0  0  0  0  0  0  0  0  0
  -34.2557    4.9087  -43.1443 C   0  0  0  0  0  0  0  0  0  0  0  0
  -36.3896    2.5210  -45.5270 X   0  0  0  0  0  0  0  0  0  0  0  0
  1  2  1  0  0  0  0
  2  3  1  0  0  0  0
  3  4  1  0  0  0  0
  3  6  1  0  0  0  0
  3 10  1  0  0  0  0
  4  5  1  0  0  0  0
  6  7  1  0  0  0  0
  7  8  1  0  0  0  0
  8  9  1  0  0  0  0
  8 11  1  0  0  0  0
  9 10  1  0  0  0  0
M  END
> <Index>
11545

> <PropertyFieldDistance>
nan

$$$$
9099878
BBcorina  12272117083D 1   1.00000     0.00000 
CORINA 4.3.0 0026  30.10.2019
 15 15  0  0  0  0  0  0  0  0999 V2000
  -33.8048    7.8600  -42.8779 C   0  0  0  0  0  0  0  0  0  0  0  0
  -35.0715    7.1642  -42.3756 C   0  0  0  0  0  0  0  0  0  0  0  0
  -36.1731    8.1343  -42.3185 N   0  0  0  0  0  0  0  0  0  0  0  0
  -35.4418    6.0277  -43.3307 C   0  0  0  0  0  0  0  0  0  0  0  0
  -36.7095    5.3305  -42.8292 C   0  0  0  0  0  0  0  0  0  0  0  0
  -37.0403    4.1570  -43.7542 C   0  0  0  0  0  0  0  0  0  0  0  0
  -35.9153    3.2133  -43.7714 N   0  0  0  0  0  0  0  0  0  0  0  0
  -36.2517    2.0070  -44.5393 C   0  0  0  0  0  0  0  0  0  0  0  0
  -36.1729    2.3166  -46.0357 C   0  0  0  0  0  0  0  0  0  0  0  0
  -34.8460    2.5874  -46.3866 F   0  0  0  0  0  0  0  0  0  0  0  0
  -36.6325    1.2145  -46.7646 F   0  0  0  0  0  0  0  0  0  0  0  0
  -36.9683    3.4309  -46.3239 F   0  0  0  0  0  0  0  0  0  0  0  0
  -34.6983    3.8476  -44.2940 C   0  0  0  0  0  0  0  0  0  0  0  0
  -34.2975    5.0118  -43.3851 C   0  0  0  0  0  0  0  0  0  0  0  0
  -36.2357    8.9012  -40.7914 X   0  0  0  0  0  0  0  0  0  0  0  0
  1  2  1  0  0  0  0
  2  3  1  0  0  0  0
  2  4  1  0  0  0  0
  3 15  1  0  0  0  0
  4  5  1  0  0  0  0
  4 14  1  0  0  0  0
  5  6  1  0  0  0  0
  6  7  1  0  0  0  0
  7  8  1  0  0  0  0
  7 13  1  0  0  0  0
  8  9  1  0  0  0  0
  9 10  1  0  0  0  0
  9 11  1  0  0  0  0
  9 12  1  0  0  0  0
 13 14  1  0  0  0  0
M  END
> <Index>
11548

> <PropertyFieldDistance>
nan

$$$$
9046436
BBcorina  12272117083D 1   1.00000     0.00000 
CORINA 4.3.0 0026  30.10.2019
 11 11  0  0  0  0  0  0  0  0999 V2000
  -33.6416    7.3312  -41.6056 C   0  0  0  0  0  0  0  0  0  0  0  0
  -34.9458    6.5588  -41.3972 C   0  0  0  0  0  0  0  0  0  0  0  0
  -36.0468    7.5264  -40.9581 C   0  0  0  0  0  0  0  0  0  0  0  0
  -35.3534    5.8832  -42.7080 C   0  0  0  0  0  0  0  0  0  0  0  0
  -35.5547    6.9449  -43.7910 C   0  0  0  0  0  0  0  0  0  0  0  0
  -36.6587    5.1099  -42.5007 C   0  0  0  0  0  0  0  0  0  0  0  0
  -37.0290    4.3869  -43.7977 C   0  0  0  0  0  0  0  0  0  0  0  0
  -35.9479    3.4664  -44.1723 N   0  0  0  0  0  0  0  0  0  0  0  0
  -34.6959    4.1916  -44.4227 C   0  0  0  0  0  0  0  0  0  0  0  0
  -34.2558    4.9088  -43.1443 C   0  0  0  0  0  0  0  0  0  0  0  0
  -36.3899    2.5210  -45.5269 X   0  0  0  0  0  0  0  0  0  0  0  0
  1  2  1  0  0  0  0
  2  3  1  0  0  0  0
  2  4  1  0  0  0  0
  4  5  1  0  0  0  0
  4  6  1  0  0  0  0
  4 10  1  0  0  0  0
  6  7  1  0  0  0  0
  7  8  1  0  0  0  0
  8  9  1  0  0  0  0
  8 11  1  0  0  0  0
  9 10  1  0  0  0  0
M  END
> <Index>
11556

> <PropertyFieldDistance>
nan

$$$$
9284600
BBcorina  12272117083D 1   1.00000     0.00000 
CORINA 4.3.0 0026  30.10.2019
 12 13  0  0  0  0  0  0  0  0999 V2000
  -35.8153    3.0575  -47.6730 N   0  0  0  0  0  0  0  0  0  0  0  0
  -36.0235    2.2038  -46.4958 C   0  0  0  0  0  0  0  0  0  0  0  0
  -36.6550    3.0140  -45.3931 C   0  0  0  0  0  0  0  0  0  0  0  0
  -37.9372    3.1732  -45.1801 N   0  0  0  0  0  0  0  0  0  0  0  0
  -38.1179    3.9283  -44.1497 N   0  0  0  0  0  0  0  0  0  0  0  0
  -36.9691    4.2795  -43.6654 C   0  0  0  0  0  0  0  0  0  0  0  0
  -36.6527    5.1474  -42.4735 C   0  0  0  0  0  0  0  0  0  0  0  0
  -35.2693    4.9439  -42.1414 O   0  0  0  0  0  0  0  0  0  0  0  0
  -34.3819    5.0628  -43.2568 C   0  0  0  0  0  0  0  0  0  0  0  0
  -34.5745    3.8691  -44.2027 C   0  0  0  0  0  0  0  0  0  0  0  0
  -36.0091    3.7047  -44.4393 N   0  0  0  0  0  0  0  0  0  0  0  0
  -35.0989    2.1753  -48.9507 X   0  0  0  0  0  0  0  0  0  0  0  0
  1  2  1  0  0  0  0
  1 12  1  0  0  0  0
  2  3  1  0  0  0  0
  3  4  2  0  0  0  0
  3 11  1  0  0  0  0
  4  5  1  0  0  0  0
  5  6  2  0  0  0  0
  6  7  1  0  0  0  0
  6 11  1  0  0  0  0
  7  8  1  0  0  0  0
  8  9  1  0  0  0  0
  9 10  1  0  0  0  0
 10 11  1  0  0  0  0
M  END
> <Index>
11562

> <PropertyFieldDistance>
nan

$$$$
9043574
BBcorina  12272117083D 1   1.00000     0.00000 
CORINA 4.3.0 0026  30.10.2019
  9  9  0  0  0  0  0  0  0  0999 V2000
  -35.6809    1.6270  -45.6250 C   0  0  0  0  0  0  0  0  0  0  0  0
  -36.6440    2.7649  -45.2810 C   0  0  0  0  0  0  0  0  0  0  0  0
  -38.0858    2.2726  -45.4216 C   0  0  0  0  0  0  0  0  0  0  0  0
  -36.4092    3.2043  -43.8991 N   0  0  0  0  0  0  0  0  0  0  0  0
  -37.3249    4.3064  -43.5303 C   0  0  0  0  0  0  0  0  0  0  0  0
  -36.1030    4.9594  -42.8593 C   0  0  0  0  0  0  0  0  0  0  0  0
  -35.2450    4.1177  -43.8210 C   0  0  0  0  0  0  0  0  0  0  0  0
  -36.0040    6.4066  -43.0913 N   0  0  0  0  0  0  0  0  0  0  0  0
  -36.0443    6.7634  -44.7632 X   0  0  0  0  0  0  0  0  0  0  0  0
  1  2  1  0  0  0  0
  2  3  1  0  0  0  0
  2  4  1  0  0  0  0
  4  5  1  0  0  0  0
  4  7  1  0  0  0  0
  5  6  1  0  0  0  0
  6  7  1  0  0  0  0
  6  8  1  0  0  0  0
  8  9  1  0  0  0  0
M  END
> <Index>
11569

> <PropertyFieldDistance>
nan

$$$$
9048250
BBcorina  12272117083D 1   1.00000     0.00000 
CORINA 4.3.0 0026  30.10.2019
 12 12  0  0  0  0  0  0  0  0999 V2000
  -36.1103    4.0811  -43.1090 C   0  0  0  0  0  0  0  0  0  0  0  0
  -36.0173    3.5927  -44.4913 N   0  0  0  0  0  0  0  0  0  0  0  0
  -36.3933    2.1751  -44.5752 C   0  0  0  0  0  0  0  0  0  0  0  0
  -36.1059    1.6538  -45.9847 C   0  0  0  0  0  0  0  0  0  0  0  0
  -36.9627    2.3260  -46.9098 O   0  0  0  0  0  0  0  0  0  0  0  0
  -34.7217    1.9497  -46.3234 C   0  0  0  0  0  0  0  0  0  0  0  0
  -34.3623    1.5159  -47.7593 C   0  0  0  0  0  0  0  0  0  0  0  0
  -34.0950    0.0351  -47.7585 C   0  0  0  0  0  0  0  0  0  0  0  0
  -35.3429   -0.7894  -48.1280 C   0  0  0  0  0  0  0  0  0  0  0  0
  -36.6279   -0.2581  -47.4647 C   0  0  0  0  0  0  0  0  0  0  0  0
  -36.4099    0.1423  -46.0298 C   0  0  0  0  0  0  0  0  0  0  0  0
  -36.9732    4.5436  -45.5429 X   0  0  0  0  0  0  0  0  0  0  0  0
  1  2  1  0  0  0  0
  2  3  1  0  0  0  0
  2 12  1  0  0  0  0
  3  4  1  0  0  0  0
  4  5  1  0  0  0  0
  4  6  1  0  0  0  0
  4 11  1  0  0  0  0
  6  7  1  0  0  0  0
  7  8  1  0  0  0  0
  8  9  1  0  0  0  0
  9 10  1  0  0  0  0
 10 11  1  0  0  0  0
M  END
> <Index>
11571

> <PropertyFieldDistance>
nan

$$$$
9048578
BBcorina  12272117083D 1   1.00000     0.00000 
CORINA 4.3.0 0026  30.10.2019
 11 11  0  0  0  0  0  0  0  0999 V2000
  -35.1142    4.0225  -41.2424 O   0  0  0  0  0  0  0  0  0  0  0  0
  -35.2462    5.1676  -42.0870 C   0  0  0  0  0  0  0  0  0  0  0  0
  -36.6793    5.2475  -42.6202 C   0  0  0  0  0  0  0  0  0  0  0  0
  -36.9723    4.0087  -43.4695 C   0  0  0  0  0  0  0  0  0  0  0  0
  -36.0192    3.9414  -44.5845 N   0  0  0  0  0  0  0  0  0  0  0  0
  -34.6396    3.8164  -44.0970 C   0  0  0  0  0  0  0  0  0  0  0  0
  -34.2770    5.0496  -43.2665 C   0  0  0  0  0  0  0  0  0  0  0  0
  -34.9268    6.4324  -41.2874 C   0  0  0  0  0  0  0  0  0  0  0  0
  -33.6173    6.3581  -40.8008 F   0  0  0  0  0  0  0  0  0  0  0  0
  -35.0536    7.5524  -42.1160 F   0  0  0  0  0  0  0  0  0  0  0  0
  -36.4111    2.6621  -45.6494 X   0  0  0  0  0  0  0  0  0  0  0  0
  1  2  1  0  0  0  0
  2  3  1  0  0  0  0
  2  7  1  0  0  0  0
  2  8  1  0  0  0  0
  3  4  1  0  0  0  0
  4  5  1  0  0  0  0
  5  6  1  0  0  0  0
  5 11  1  0  0  0  0
  6  7  1  0  0  0  0
  8  9  1  0  0  0  0
  8 10  1  0  0  0  0
M  END
> <Index>
11576

> <PropertyFieldDistance>
nan

$$$$
9048746
BBcorina  12272117083D 1   1.00000     0.00000 
CORINA 4.3.0 0026  30.10.2019
 11 11  0  0  0  0  0  0  0  0999 V2000
  -33.6636    4.6026  -40.7363 C   0  0  0  0  0  0  0  0  0  0  0  0
  -34.0168    3.8795  -42.0376 C   0  0  0  0  0  0  0  0  0  0  0  0
  -34.2557    4.9088  -43.1443 C   0  0  0  0  0  0  0  0  0  0  0  0
  -32.9628    5.6820  -43.4114 C   0  0  0  0  0  0  0  0  0  0  0  0
  -31.9101    4.7621  -43.7074 O   0  0  0  0  0  0  0  0  0  0  0  0
  -35.3533    5.8832  -42.7080 C   0  0  0  0  0  0  0  0  0  0  0  0
  -36.6585    5.1099  -42.5009 C   0  0  0  0  0  0  0  0  0  0  0  0
  -37.0298    4.3870  -43.7976 C   0  0  0  0  0  0  0  0  0  0  0  0
  -35.9477    3.4663  -44.1724 N   0  0  0  0  0  0  0  0  0  0  0  0
  -34.6956    4.1916  -44.4226 C   0  0  0  0  0  0  0  0  0  0  0  0
  -36.3897    2.5210  -45.5270 X   0  0  0  0  0  0  0  0  0  0  0  0
  1  2  1  0  0  0  0
  2  3  1  0  0  0  0
  3  4  1  0  0  0  0
  3  6  1  0  0  0  0
  3 10  1  0  0  0  0
  4  5  1  0  0  0  0
  6  7  1  0  0  0  0
  7  8  1  0  0  0  0
  8  9  1  0  0  0  0
  9 10  1  0  0  0  0
  9 11  1  0  0  0  0
M  END
> <Index>
11581

> <PropertyFieldDistance>
nan

$$$$
9099886
BBcorina  12272117083D 1   1.00000     0.00000 
CORINA 4.3.0 0026  30.10.2019
 13 14  0  0  0  0  0  0  0  0999 V2000
  -36.0191    3.9414  -44.5845 N   0  0  0  0  0  0  0  0  0  0  0  0
  -36.9723    4.0087  -43.4695 C   0  0  0  0  0  0  0  0  0  0  0  0
  -36.6793    5.2475  -42.6202 C   0  0  0  0  0  0  0  0  0  0  0  0
  -35.2462    5.1676  -42.0870 C   0  0  0  0  0  0  0  0  0  0  0  0
  -34.2770    5.0496  -43.2665 C   0  0  0  0  0  0  0  0  0  0  0  0
  -34.6396    3.8164  -44.0970 C   0  0  0  0  0  0  0  0  0  0  0  0
  -34.9316    6.4133  -41.2994 C   0  0  0  0  0  0  0  0  0  0  0  0
  -34.4836    7.5487  -41.9506 C   0  0  0  0  0  0  0  0  0  0  0  0
  -34.2122    8.6426  -41.2604 N   0  0  0  0  0  0  0  0  0  0  0  0
  -34.3589    8.6487  -39.9474 C   0  0  0  0  0  0  0  0  0  0  0  0
  -34.8071    7.5129  -39.2959 C   0  0  0  0  0  0  0  0  0  0  0  0
  -35.0833    6.4209  -39.9865 N   0  0  0  0  0  0  0  0  0  0  0  0
  -36.4110    2.6621  -45.6494 X   0  0  0  0  0  0  0  0  0  0  0  0
  1  2  1  0  0  0  0
  1  6  1  0  0  0  0
  1 13  1  0  0  0  0
  2  3  1  0  0  0  0
  3  4  1  0  0  0  0
  4  5  1  0  0  0  0
  4  7  1  0  0  0  0
  5  6  1  0  0  0  0
  7  8  2  0  0  0  0
  7 12  1  0  0  0  0
  8  9  1  0  0  0  0
  9 10  2  0  0  0  0
 10 11  1  0  0  0  0
 11 12  2  0  0  0  0
M  END
> <Index>
11591

> <PropertyFieldDistance>
nan

$$$$
9107964
BBcorina  12272117083D 1   1.00000     0.00000 
CORINA 4.3.0 0026  30.10.2019
 11 11  0  0  0  0  0  0  0  0999 V2000
  -30.2729    3.8627  -42.9341 O   0  0  0  0  0  0  0  0  0  0  0  0
  -30.5621    5.2593  -43.0251 C   0  0  0  0  0  0  0  0  0  0  0  0
  -31.9455    5.4542  -43.6487 C   0  0  0  0  0  0  0  0  0  0  0  0
  -32.9415    4.9181  -42.7753 O   0  0  0  0  0  0  0  0  0  0  0  0
  -34.2770    5.0496  -43.2665 C   0  0  0  0  0  0  0  0  0  0  0  0
  -35.2462    5.1676  -42.0870 C   0  0  0  0  0  0  0  0  0  0  0  0
  -36.6793    5.2475  -42.6202 C   0  0  0  0  0  0  0  0  0  0  0  0
  -36.9723    4.0087  -43.4695 C   0  0  0  0  0  0  0  0  0  0  0  0
  -36.0192    3.9414  -44.5845 N   0  0  0  0  0  0  0  0  0  0  0  0
  -34.6396    3.8164  -44.0970 C   0  0  0  0  0  0  0  0  0  0  0  0
  -36.4111    2.6621  -45.6494 X   0  0  0  0  0  0  0  0  0  0  0  0
  1  2  1  0  0  0  0
  2  3  1  0  0  0  0
  3  4  1  0  0  0  0
  4  5  1  0  0  0  0
  5  6  1  0  0  0  0
  5 10  1  0  0  0  0
  6  7  1  0  0  0  0
  7  8  1  0  0  0  0
  8  9  1  0  0  0  0
  9 10  1  0  0  0  0
  9 11  1  0  0  0  0
M  END
> <Index>
11615

> <PropertyFieldDistance>
nan

$$$$
9279910
BBcorina  12272117083D 1   1.00000     0.00000 
CORINA 4.3.0 0026  30.10.2019
 15 16  0  0  0  0  0  0  0  0999 V2000
  -36.1397    0.7483  -42.8816 C   0  0  0  0  0  0  0  0  0  0  0  0
  -36.3599    1.0738  -44.2929 N   0  0  0  0  0  0  0  0  0  0  0  0
  -36.6799    0.1638  -45.3085 N   0  0  0  0  0  0  0  0  0  0  0  0
  -36.7992    0.8245  -46.4317 C   0  0  0  0  0  0  0  0  0  0  0  0
  -36.5658    2.1778  -46.1724 C   0  0  0  0  0  0  0  0  0  0  0  0
  -36.2909    2.3065  -44.8456 C   0  0  0  0  0  0  0  0  0  0  0  0
  -35.9972    3.4943  -44.1762 N   0  0  0  0  0  0  0  0  0  0  0  0
  -37.1067    4.2527  -43.6120 C   0  0  0  0  0  0  0  0  0  0  0  0
  -36.6031    5.2268  -42.5465 C   0  0  0  0  0  0  0  0  0  0  0  0
  -35.4403    6.0372  -43.1318 C   0  0  0  0  0  0  0  0  0  0  0  0
  -34.2579    5.0925  -43.3605 C   0  0  0  0  0  0  0  0  0  0  0  0
  -33.2319    5.7788  -44.1569 N   0  0  0  0  0  0  0  0  0  0  0  0
  -34.7190    3.8648  -44.0922 C   0  0  0  0  0  0  0  0  0  0  0  0
  -33.8840    3.1734  -44.6364 O   0  0  0  0  0  0  0  0  0  0  0  0
  -31.6694    5.1990  -43.7739 X   0  0  0  0  0  0  0  0  0  0  0  0
  1  2  1  0  0  0  0
  2  3  1  0  0  0  0
  2  6  1  0  0  0  0
  3  4  2  0  0  0  0
  4  5  1  0  0  0  0
  5  6  2  0  0  0  0
  6  7  1  0  0  0  0
  7  8  1  0  0  0  0
  7 13  1  0  0  0  0
  8  9  1  0  0  0  0
  9 10  1  0  0  0  0
 10 11  1  0  0  0  0
 11 12  1  0  0  0  0
 11 13  1  0  0  0  0
 12 15  1  0  0  0  0
 13 14  2  0  0  0  0
M  END
> <Index>
11622

> <PropertyFieldDistance>
nan

$$$$
9083026
BBcorina  12272117083D 1   1.00000     0.00000 
CORINA 4.3.0 0026  30.10.2019
 13 14  0  0  0  0  0  0  0  0999 V2000
  -33.6420    8.7567  -41.1330 C   0  0  0  0  0  0  0  0  0  0  0  0
  -34.0123    7.8315  -42.2122 N   0  0  0  0  0  0  0  0  0  0  0  0
  -35.0646    6.9052  -41.7735 C   0  0  0  0  0  0  0  0  0  0  0  0
  -35.4227    5.9594  -42.9217 C   0  0  0  0  0  0  0  0  0  0  0  0
  -36.6040    5.0769  -42.5078 C   0  0  0  0  0  0  0  0  0  0  0  0
  -37.1133    4.2996  -43.7266 C   0  0  0  0  0  0  0  0  0  0  0  0
  -35.9761    3.6456  -44.3782 N   0  0  0  0  0  0  0  0  0  0  0  0
  -36.0048    2.6213  -45.2771 C   0  0  0  0  0  0  0  0  0  0  0  0
  -34.7231    2.3516  -45.5980 C   0  0  0  0  0  0  0  0  0  0  0  0
  -33.9353    3.1936  -44.9095 N   0  0  0  0  0  0  0  0  0  0  0  0
  -34.6773    3.9721  -44.1776 C   0  0  0  0  0  0  0  0  0  0  0  0
  -34.2166    5.0694  -43.2475 C   0  0  0  0  0  0  0  0  0  0  0  0
  -34.4927    8.6854  -43.6137 X   0  0  0  0  0  0  0  0  0  0  0  0
  1  2  1  0  0  0  0
  2  3  1  0  0  0  0
  2 13  1  0  0  0  0
  3  4  1  0  0  0  0
  4  5  1  0  0  0  0
  4 12  1  0  0  0  0
  5  6  1  0  0  0  0
  6  7  1  0  0  0  0
  7  8  1  0  0  0  0
  7 11  1  0  0  0  0
  8  9  2  0  0  0  0
  9 10  1  0  0  0  0
 10 11  2  0  0  0  0
 11 12  1  0  0  0  0
M  END
> <Index>
11625

> <PropertyFieldDistance>
nan

$$$$
9142818
BBcorina  12272117083D 1   1.00000     0.00000 
CORINA 4.3.0 0026  30.10.2019
 10 10  0  0  0  0  0  0  0  0999 V2000
  -33.1791    3.0308  -42.0410 C   0  0  0  0  0  0  0  0  0  0  0  0
  -32.9682    4.3725  -42.6011 N   0  0  0  0  0  0  0  0  0  0  0  0
  -34.2217    4.9240  -43.1326 C   0  0  0  0  0  0  0  0  0  0  0  0
  -35.2759    4.9515  -42.0232 C   0  0  0  0  0  0  0  0  0  0  0  0
  -36.6370    5.2654  -42.6559 C   0  0  0  0  0  0  0  0  0  0  0  0
  -37.0533    4.0844  -43.5335 C   0  0  0  0  0  0  0  0  0  0  0  0
  -35.9754    3.7209  -44.4448 N   0  0  0  0  0  0  0  0  0  0  0  0
  -34.6999    4.0690  -44.2708 C   0  0  0  0  0  0  0  0  0  0  0  0
  -33.8824    3.6742  -45.0750 O   0  0  0  0  0  0  0  0  0  0  0  0
  -32.2818    5.4212  -41.4379 X   0  0  0  0  0  0  0  0  0  0  0  0
  1  2  1  0  0  0  0
  2  3  1  0  0  0  0
  2 10  1  0  0  0  0
  3  4  1  0  0  0  0
  3  8  1  0  0  0  0
  4  5  1  0  0  0  0
  5  6  1  0  0  0  0
  6  7  1  0  0  0  0
  7  8  1  0  0  0  0
  8  9  2  0  0  0  0
M  END
> <Index>
11631

> <PropertyFieldDistance>
nan

$$$$
10156334
BBcorina  12272117083D 1   1.00000     0.00000 
CORINA 4.3.0 0026  30.10.2019
 15 16  0  0  0  0  0  0  0  0999 V2000
  -36.2998    3.7395  -46.6210 F   0  0  0  0  0  0  0  0  0  0  0  0
  -36.4131    2.5132  -46.0656 C   0  0  0  0  0  0  0  0  0  0  0  0
  -36.7111    1.4196  -46.8570 C   0  0  0  0  0  0  0  0  0  0  0  0
  -36.8326    0.1648  -46.2872 C   0  0  0  0  0  0  0  0  0  0  0  0
  -36.6517   -0.0007  -44.9269 C   0  0  0  0  0  0  0  0  0  0  0  0
  -36.3483    1.0871  -44.1304 C   0  0  0  0  0  0  0  0  0  0  0  0
  -36.2253    2.3480  -44.6971 C   0  0  0  0  0  0  0  0  0  0  0  0
  -35.9190    3.4508  -43.8935 N   0  0  0  0  0  0  0  0  0  0  0  0
  -37.1033    4.3217  -43.7135 C   0  0  0  0  0  0  0  0  0  0  0  0
  -37.0130    5.1329  -42.5014 C   0  0  0  0  0  0  0  0  0  0  0  0
  -35.7906    6.0733  -42.5303 C   0  0  0  0  0  0  0  0  0  0  0  0
  -34.6127    5.3082  -42.1990 N   0  0  0  0  0  0  0  0  0  0  0  0
  -33.8855    4.7730  -43.3742 C   0  0  0  0  0  0  0  0  0  0  0  0
  -34.8286    4.2114  -44.4534 C   0  0  0  0  0  0  0  0  0  0  0  0
  -33.5651    6.2019  -41.1851 X   0  0  0  0  0  0  0  0  0  0  0  0
  1  2  1  0  0  0  0
  2  3  2  0  0  0  0
  2  7  1  0  0  0  0
  3  4  1  0  0  0  0
  4  5  2  0  0  0  0
  5  6  1  0  0  0  0
  6  7  2  0  0  0  0
  7  8  1  0  0  0  0
  8  9  1  0  0  0  0
  8 14  1  0  0  0  0
  9 10  1  0  0  0  0
 10 11  1  0  0  0  0
 11 12  1  0  0  0  0
 12 13  1  0  0  0  0
 12 15  1  0  0  0  0
 13 14  1  0  0  0  0
M  END
> <Index>
11632

> <PropertyFieldDistance>
nan

$$$$
17510036
BBcorina  12272117083D 1   1.00000     0.00000 
CORINA 4.3.0 0026  30.10.2019
 12 12  0  0  0  0  0  0  0  0999 V2000
  -34.9465    6.5602  -41.3976 C   0  0  0  0  0  0  0  0  0  0  0  0
  -35.3534    5.8832  -42.7080 C   0  0  0  0  0  0  0  0  0  0  0  0
  -36.6587    5.1099  -42.5008 C   0  0  0  0  0  0  0  0  0  0  0  0
  -37.0290    4.3869  -43.7977 C   0  0  0  0  0  0  0  0  0  0  0  0
  -35.9479    3.4663  -44.1723 N   0  0  0  0  0  0  0  0  0  0  0  0
  -34.6959    4.1916  -44.4227 C   0  0  0  0  0  0  0  0  0  0  0  0
  -34.2559    4.9088  -43.1443 C   0  0  0  0  0  0  0  0  0  0  0  0
  -32.9630    5.6820  -43.4116 C   0  0  0  0  0  0  0  0  0  0  0  0
  -32.4903    6.2287  -42.2137 F   0  0  0  0  0  0  0  0  0  0  0  0
  -32.0012    4.8141  -43.9397 F   0  0  0  0  0  0  0  0  0  0  0  0
  -33.2153    6.7105  -44.3260 F   0  0  0  0  0  0  0  0  0  0  0  0
  -36.3900    2.5210  -45.5269 X   0  0  0  0  0  0  0  0  0  0  0  0
  1  2  1  0  0  0  0
  2  3  1  0  0  0  0
  2  7  1  0  0  0  0
  3  4  1  0  0  0  0
  4  5  1  0  0  0  0
  5  6  1  0  0  0  0
  5 12  1  0  0  0  0
  6  7  1  0  0  0  0
  7  8  1  0  0  0  0
  8  9  1  0  0  0  0
  8 10  1  0  0  0  0
  8 11  1  0  0  0  0
M  END
> <Index>
11662

> <PropertyFieldDistance>
nan

$$$$
11355144
BBcorina  12272117083D 1   1.00000     0.00000 
CORINA 4.3.0 0026  30.10.2019
 10 10  0  0  0  0  0  0  0  0999 V2000
  -35.3230    1.8674  -45.6318 C   0  0  0  0  0  0  0  0  0  0  0  0
  -36.3545    2.8471  -45.4956 O   0  0  0  0  0  0  0  0  0  0  0  0
  -36.0191    3.9414  -44.5845 N   0  0  0  0  0  0  0  0  0  0  0  0
  -36.9723    4.0086  -43.4694 C   0  0  0  0  0  0  0  0  0  0  0  0
  -36.6793    5.2476  -42.6203 C   0  0  0  0  0  0  0  0  0  0  0  0
  -35.2462    5.1675  -42.0868 C   0  0  0  0  0  0  0  0  0  0  0  0
  -34.2769    5.0496  -43.2664 C   0  0  0  0  0  0  0  0  0  0  0  0
  -34.6396    3.8164  -44.0971 C   0  0  0  0  0  0  0  0  0  0  0  0
  -34.9386    6.3809  -41.3181 N   0  0  0  0  0  0  0  0  0  0  0  0
  -35.1946    7.7846  -42.2604 X   0  0  0  0  0  0  0  0  0  0  0  0
  1  2  1  0  0  0  0
  2  3  1  0  0  0  0
  3  4  1  0  0  0  0
  3  8  1  0  0  0  0
  4  5  1  0  0  0  0
  5  6  1  0  0  0  0
  6  7  1  0  0  0  0
  6  9  1  0  0  0  0
  7  8  1  0  0  0  0
  9 10  1  0  0  0  0
M  END
> <Index>
11672

> <PropertyFieldDistance>
nan

$$$$
11352998
BBcorina  12272117083D 1   1.00000     0.00000 
CORINA 4.3.0 0026  30.10.2019
 10 10  0  0  0  0  0  0  0  0999 V2000
  -34.3801    6.3017  -44.1396 C   0  0  0  0  0  0  0  0  0  0  0  0
  -34.2770    5.0496  -43.2665 C   0  0  0  0  0  0  0  0  0  0  0  0
  -35.2462    5.1676  -42.0870 C   0  0  0  0  0  0  0  0  0  0  0  0
  -36.6793    5.2476  -42.6202 C   0  0  0  0  0  0  0  0  0  0  0  0
  -37.6593    5.3059  -41.4467 C   0  0  0  0  0  0  0  0  0  0  0  0
  -38.9859    5.4952  -41.9430 O   0  0  0  0  0  0  0  0  0  0  0  0
  -36.9723    4.0087  -43.4694 C   0  0  0  0  0  0  0  0  0  0  0  0
  -36.0191    3.9414  -44.5845 N   0  0  0  0  0  0  0  0  0  0  0  0
  -34.6396    3.8164  -44.0970 C   0  0  0  0  0  0  0  0  0  0  0  0
  -36.4110    2.6621  -45.6494 X   0  0  0  0  0  0  0  0  0  0  0  0
  1  2  1  0  0  0  0
  2  3  1  0  0  0  0
  2  9  1  0  0  0  0
  3  4  1  0  0  0  0
  4  5  1  0  0  0  0
  4  7  1  0  0  0  0
  5  6  1  0  0  0  0
  7  8  1  0  0  0  0
  8  9  1  0  0  0  0
  8 10  1  0  0  0  0
M  END
> <Index>
11678

> <PropertyFieldDistance>
nan

$$$$
15730412
BBcorina  12272117083D 1   1.00000     0.00000 
CORINA 4.3.0 0026  30.10.2019
 11 11  0  0  0  0  0  0  0  0999 V2000
  -31.8353    4.6970  -43.7261 C   0  0  0  0  0  0  0  0  0  0  0  0
  -32.9630    5.6821  -43.4116 C   0  0  0  0  0  0  0  0  0  0  0  0
  -33.1497    6.5404  -44.5005 F   0  0  0  0  0  0  0  0  0  0  0  0
  -32.6254    6.4314  -42.2795 F   0  0  0  0  0  0  0  0  0  0  0  0
  -34.2558    4.9088  -43.1443 C   0  0  0  0  0  0  0  0  0  0  0  0
  -35.3535    5.8832  -42.7080 C   0  0  0  0  0  0  0  0  0  0  0  0
  -36.6587    5.1099  -42.5007 C   0  0  0  0  0  0  0  0  0  0  0  0
  -37.0290    4.3869  -43.7977 C   0  0  0  0  0  0  0  0  0  0  0  0
  -35.9479    3.4664  -44.1723 N   0  0  0  0  0  0  0  0  0  0  0  0
  -34.6959    4.1916  -44.4226 C   0  0  0  0  0  0  0  0  0  0  0  0
  -36.3899    2.5210  -45.5269 X   0  0  0  0  0  0  0  0  0  0  0  0
  1  2  1  0  0  0  0
  2  3  1  0  0  0  0
  2  4  1  0  0  0  0
  2  5  1  0  0  0  0
  5  6  1  0  0  0  0
  5 10  1  0  0  0  0
  6  7  1  0  0  0  0
  7  8  1  0  0  0  0
  8  9  1  0  0  0  0
  9 10  1  0  0  0  0
  9 11  1  0  0  0  0
M  END
> <Index>
11685

> <PropertyFieldDistance>
nan

$$$$
11685596
BBcorina  12272117083D 1   1.00000     0.00000 
CORINA 4.3.0 0026  30.10.2019
 12 12  0  0  0  0  0  0  0  0999 V2000
  -36.3354    2.3075  -44.8786 C   0  0  0  0  0  0  0  0  0  0  0  0
  -35.9453    3.3417  -43.9110 N   0  0  0  0  0  0  0  0  0  0  0  0
  -37.0432    4.2898  -43.6827 C   0  0  0  0  0  0  0  0  0  0  0  0
  -36.6554    5.2624  -42.5667 C   0  0  0  0  0  0  0  0  0  0  0  0
  -35.3833    6.0133  -42.9701 C   0  0  0  0  0  0  0  0  0  0  0  0
  -35.6305    6.7659  -44.1231 F   0  0  0  0  0  0  0  0  0  0  0  0
  -34.9936    6.8647  -41.9306 F   0  0  0  0  0  0  0  0  0  0  0  0
  -34.2692    5.0007  -43.2489 C   0  0  0  0  0  0  0  0  0  0  0  0
  -33.0113    5.7395  -43.7106 C   0  0  0  0  0  0  0  0  0  0  0  0
  -31.9086    4.7810  -43.8628 N   0  0  0  0  0  0  0  0  0  0  0  0
  -34.7261    4.0356  -44.3451 C   0  0  0  0  0  0  0  0  0  0  0  0
  -30.4803    5.5669  -44.3786 X   0  0  0  0  0  0  0  0  0  0  0  0
  1  2  1  0  0  0  0
  2  3  1  0  0  0  0
  2 11  1  0  0  0  0
  3  4  1  0  0  0  0
  4  5  1  0  0  0  0
  5  6  1  0  0  0  0
  5  7  1  0  0  0  0
  5  8  1  0  0  0  0
  8  9  1  0  0  0  0
  8 11  1  0  0  0  0
  9 10  1  0  0  0  0
 10 12  1  0  0  0  0
M  END
> <Index>
11687

> <PropertyFieldDistance>
nan

$$$$
9193984
BBcorina  12272117083D 1   1.00000     0.00000 
CORINA 4.3.0 0026  30.10.2019
 11 11  0  0  0  0  0  0  0  0999 V2000
  -33.3611    7.3920  -40.7482 C   0  0  0  0  0  0  0  0  0  0  0  0
  -34.2240    6.2472  -40.9784 O   0  0  0  0  0  0  0  0  0  0  0  0
  -34.1169    5.6324  -42.1668 C   0  0  0  0  0  0  0  0  0  0  0  0
  -33.3281    6.0375  -42.9876 O   0  0  0  0  0  0  0  0  0  0  0  0
  -34.9804    4.4370  -42.4774 C   0  0  0  0  0  0  0  0  0  0  0  0
  -36.4718    4.8295  -42.4412 C   0  0  0  0  0  0  0  0  0  0  0  0
  -36.9947    4.5502  -43.8667 C   0  0  0  0  0  0  0  0  0  0  0  0
  -36.0637    3.5298  -44.4136 N   0  0  0  0  0  0  0  0  0  0  0  0
  -34.7276    3.9536  -43.9215 C   0  0  0  0  0  0  0  0  0  0  0  0
  -33.7574    2.7706  -43.9261 C   0  0  0  0  0  0  0  0  0  0  0  0
  -36.1097    3.5119  -46.1230 X   0  0  0  0  0  0  0  0  0  0  0  0
  1  2  1  0  0  0  0
  2  3  1  0  0  0  0
  3  4  2  0  0  0  0
  3  5  1  0  0  0  0
  5  6  1  0  0  0  0
  5  9  1  0  0  0  0
  6  7  1  0  0  0  0
  7  8  1  0  0  0  0
  8  9  1  0  0  0  0
  8 11  1  0  0  0  0
  9 10  1  0  0  0  0
M  END
> <Index>
11701

> <PropertyFieldDistance>
nan

$$$$
9195606
BBcorina  12272117083D 1   1.00000     0.00000 
CORINA 4.3.0 0026  30.10.2019
 12 12  0  0  0  0  0  0  0  0999 V2000
  -33.2566    6.8551  -41.3017 C   0  0  0  0  0  0  0  0  0  0  0  0
  -33.8385    7.2751  -42.6530 C   0  0  0  0  0  0  0  0  0  0  0  0
  -34.7961    6.1923  -43.1546 C   0  0  0  0  0  0  0  0  0  0  0  0
  -35.3204    6.5706  -44.5413 C   0  0  0  0  0  0  0  0  0  0  0  0
  -35.9392    7.9689  -44.4887 C   0  0  0  0  0  0  0  0  0  0  0  0
  -35.9814    6.0544  -42.1729 C   0  0  0  0  0  0  0  0  0  0  0  0
  -37.1044    5.3483  -42.7799 C   0  0  0  0  0  0  0  0  0  0  0  0
  -36.7455    3.9097  -43.1957 C   0  0  0  0  0  0  0  0  0  0  0  0
  -36.0700    3.9607  -44.4698 N   0  0  0  0  0  0  0  0  0  0  0  0
  -34.5953    3.9701  -44.3611 C   0  0  0  0  0  0  0  0  0  0  0  0
  -34.0721    4.8748  -43.2312 C   0  0  0  0  0  0  0  0  0  0  0  0
  -36.6018    2.7008  -45.4963 X   0  0  0  0  0  0  0  0  0  0  0  0
  1  2  1  0  0  0  0
  2  3  1  0  0  0  0
  3  4  1  0  0  0  0
  3  6  1  0  0  0  0
  3 11  1  0  0  0  0
  4  5  1  0  0  0  0
  6  7  1  0  0  0  0
  7  8  1  0  0  0  0
  8  9  1  0  0  0  0
  9 10  1  0  0  0  0
  9 12  1  0  0  0  0
 10 11  1  0  0  0  0
M  END
> <Index>
11710

> <PropertyFieldDistance>
nan

$$$$
9226588
BBcorina  12272117083D 1   1.00000     0.00000 
CORINA 4.3.0 0026  30.10.2019
 13 13  0  0  0  0  0  0  0  0999 V2000
  -35.8211   -1.7674  -47.1524 C   0  0  0  0  0  0  0  0  0  0  0  0
  -35.2926   -0.5208  -46.6955 O   0  0  0  0  0  0  0  0  0  0  0  0
  -36.2405    0.2933  -46.0023 C   0  0  0  0  0  0  0  0  0  0  0  0
  -35.5689    1.5954  -45.5616 C   0  0  0  0  0  0  0  0  0  0  0  0
  -36.5687    2.4539  -44.8304 C   0  0  0  0  0  0  0  0  0  0  0  0
  -37.7063    2.0627  -44.6769 O   0  0  0  0  0  0  0  0  0  0  0  0
  -36.1984    3.6564  -44.3471 N   0  0  0  0  0  0  0  0  0  0  0  0
  -37.1582    4.5099  -43.6306 C   0  0  0  0  0  0  0  0  0  0  0  0
  -36.5301    4.9380  -42.3000 C   0  0  0  0  0  0  0  0  0  0  0  0
  -35.2213    5.5540  -42.5557 N   0  0  0  0  0  0  0  0  0  0  0  0
  -34.2878    4.5919  -43.1565 C   0  0  0  0  0  0  0  0  0  0  0  0
  -34.8224    4.1471  -44.5169 C   0  0  0  0  0  0  0  0  0  0  0  0
  -34.5707    6.2272  -41.1247 X   0  0  0  0  0  0  0  0  0  0  0  0
  1  2  1  0  0  0  0
  2  3  1  0  0  0  0
  3  4  1  0  0  0  0
  4  5  1  0  0  0  0
  5  6  2  0  0  0  0
  5  7  1  0  0  0  0
  7  8  1  0  0  0  0
  7 12  1  0  0  0  0
  8  9  1  0  0  0  0
  9 10  1  0  0  0  0
 10 11  1  0  0  0  0
 10 13  1  0  0  0  0
 11 12  1  0  0  0  0
M  END
> <Index>
11715

> <PropertyFieldDistance>
nan

$$$$
9631088
BBcorina  12272117083D 1   1.00000     0.00000 
CORINA 4.3.0 0026  30.10.2019
 10 10  0  0  0  0  0  0  0  0999 V2000
  -36.7590    2.4606  -46.9226 F   0  0  0  0  0  0  0  0  0  0  0  0
  -36.1059    1.6538  -45.9847 C   0  0  0  0  0  0  0  0  0  0  0  0
  -36.3933    2.1751  -44.5753 C   0  0  0  0  0  0  0  0  0  0  0  0
  -36.0172    3.5927  -44.4913 N   0  0  0  0  0  0  0  0  0  0  0  0
  -36.6117    0.2152  -46.1093 C   0  0  0  0  0  0  0  0  0  0  0  0
  -36.3243   -0.3061  -47.5187 C   0  0  0  0  0  0  0  0  0  0  0  0
  -34.8167   -0.2714  -47.7777 C   0  0  0  0  0  0  0  0  0  0  0  0
  -34.3110    1.1672  -47.6531 C   0  0  0  0  0  0  0  0  0  0  0  0
  -34.5984    1.6885  -46.2437 C   0  0  0  0  0  0  0  0  0  0  0  0
  -36.3229    4.2164  -42.9287 X   0  0  0  0  0  0  0  0  0  0  0  0
  1  2  1  0  0  0  0
  2  3  1  0  0  0  0
  2  5  1  0  0  0  0
  2  9  1  0  0  0  0
  3  4  1  0  0  0  0
  4 10  1  0  0  0  0
  5  6  1  0  0  0  0
  6  7  1  0  0  0  0
  7  8  1  0  0  0  0
  8  9  1  0  0  0  0
M  END
> <Index>
11716

> <PropertyFieldDistance>
nan

$$$$
16772622
BBcorina  12272117083D 1   1.00000     0.00000 
CORINA 4.3.0 0026  30.10.2019
 11 11  0  0  0  0  0  0  0  0999 V2000
  -31.9451    4.7986  -43.8683 C   0  0  0  0  0  0  0  0  0  0  0  0
  -32.9041    4.9144  -42.7615 N   0  0  0  0  0  0  0  0  0  0  0  0
  -32.5554    6.0350  -41.8781 C   0  0  0  0  0  0  0  0  0  0  0  0
  -34.2770    5.0496  -43.2665 C   0  0  0  0  0  0  0  0  0  0  0  0
  -34.3800    6.3018  -44.1396 C   0  0  0  0  0  0  0  0  0  0  0  0
  -35.2462    5.1676  -42.0870 C   0  0  0  0  0  0  0  0  0  0  0  0
  -36.6793    5.2476  -42.6202 C   0  0  0  0  0  0  0  0  0  0  0  0
  -36.9723    4.0087  -43.4695 C   0  0  0  0  0  0  0  0  0  0  0  0
  -36.0191    3.9414  -44.5845 N   0  0  0  0  0  0  0  0  0  0  0  0
  -34.6396    3.8164  -44.0970 C   0  0  0  0  0  0  0  0  0  0  0  0
  -36.4111    2.6621  -45.6494 X   0  0  0  0  0  0  0  0  0  0  0  0
  1  2  1  0  0  0  0
  2  3  1  0  0  0  0
  2  4  1  0  0  0  0
  4  5  1  0  0  0  0
  4  6  1  0  0  0  0
  4 10  1  0  0  0  0
  6  7  1  0  0  0  0
  7  8  1  0  0  0  0
  8  9  1  0  0  0  0
  9 10  1  0  0  0  0
  9 11  1  0  0  0  0
M  END
> <Index>
11723

> <PropertyFieldDistance>
nan

$$$$
12307124
BBcorina  12272117083D 1   1.00000     0.00000 
CORINA 4.3.0 0026  30.10.2019
 10 10  0  0  0  0  0  0  0  0999 V2000
  -38.3088    7.7179  -40.4512 F   0  0  0  0  0  0  0  0  0  0  0  0
  -37.3276    6.7820  -40.7953 C   0  0  0  0  0  0  0  0  0  0  0  0
  -37.6833    6.1405  -42.1380 C   0  0  0  0  0  0  0  0  0  0  0  0
  -36.6101    5.1169  -42.5144 C   0  0  0  0  0  0  0  0  0  0  0  0
  -37.0250    4.3873  -43.7948 C   0  0  0  0  0  0  0  0  0  0  0  0
  -35.9555    3.4606  -44.1930 N   0  0  0  0  0  0  0  0  0  0  0  0
  -34.6941    4.1836  -44.4110 C   0  0  0  0  0  0  0  0  0  0  0  0
  -34.3026    4.9152  -43.1244 C   0  0  0  0  0  0  0  0  0  0  0  0
  -35.3668    5.7881  -42.7357 O   0  0  0  0  0  0  0  0  0  0  0  0
  -36.4010    2.5722  -45.5845 X   0  0  0  0  0  0  0  0  0  0  0  0
  1  2  1  0  0  0  0
  2  3  1  0  0  0  0
  3  4  1  0  0  0  0
  4  5  1  0  0  0  0
  4  9  1  0  0  0  0
  5  6  1  0  0  0  0
  6  7  1  0  0  0  0
  6 10  1  0  0  0  0
  7  8  1  0  0  0  0
  8  9  1  0  0  0  0
M  END
> <Index>
11725

> <PropertyFieldDistance>
nan

$$$$
12914062
BBcorina  12272117083D 1   1.00000     0.00000 
CORINA 4.3.0 0026  30.10.2019
 10 11  0  0  0  0  0  0  0  0999 V2000
  -34.0734    0.5756  -43.0909 N   0  0  0  0  0  0  0  0  0  0  0  0
  -34.3291    1.7085  -43.9904 C   0  0  0  0  0  0  0  0  0  0  0  0
  -33.7020    3.0111  -43.4302 C   0  0  0  0  0  0  0  0  0  0  0  0
  -34.5049    4.0573  -44.0219 O   0  0  0  0  0  0  0  0  0  0  0  0
  -35.8589    3.5954  -44.0114 C   0  0  0  0  0  0  0  0  0  0  0  0
  -36.7747    4.2340  -45.0597 C   0  0  0  0  0  0  0  0  0  0  0  0
  -37.1320    5.2798  -43.9887 C   0  0  0  0  0  0  0  0  0  0  0  0
  -36.7533    4.2217  -42.9374 C   0  0  0  0  0  0  0  0  0  0  0  0
  -35.8381    2.0603  -44.0199 C   0  0  0  0  0  0  0  0  0  0  0  0
  -34.6604    0.8976  -41.5175 X   0  0  0  0  0  0  0  0  0  0  0  0
  1  2  1  0  0  0  0
  1 10  1  0  0  0  0
  2  3  1  0  0  0  0
  2  9  1  0  0  0  0
  3  4  1  0  0  0  0
  4  5  1  0  0  0  0
  5  6  1  0  0  0  0
  5  8  1  0  0  0  0
  5  9  1  0  0  0  0
  6  7  1  0  0  0  0
  7  8  1  0  0  0  0
M  END
> <Index>
11728

> <PropertyFieldDistance>
nan

$$$$
9360072
BBcorina  12272117083D 1   1.00000     0.00000 
CORINA 4.3.0 0026  30.10.2019
 12 13  0  0  0  0  0  0  0  0999 V2000
  -36.2992    0.2704  -44.7020 N   0  0  0  0  0  0  0  0  0  0  0  0
  -36.9017    1.4630  -45.3124 C   0  0  0  0  0  0  0  0  0  0  0  0
  -35.8584    2.5796  -45.3880 C   0  0  0  0  0  0  0  0  0  0  0  0
  -34.6019    2.3171  -46.2205 C   0  0  0  0  0  0  0  0  0  0  0  0
  -35.6726    3.2829  -46.7340 C   0  0  0  0  0  0  0  0  0  0  0  0
  -35.7095    3.3910  -44.1725 N   0  0  0  0  0  0  0  0  0  0  0  0
  -36.9303    4.1642  -43.9024 C   0  0  0  0  0  0  0  0  0  0  0  0
  -36.7541    4.9470  -42.5985 C   0  0  0  0  0  0  0  0  0  0  0  0
  -35.5968    5.7809  -42.7016 O   0  0  0  0  0  0  0  0  0  0  0  0
  -34.3896    5.0603  -42.9638 C   0  0  0  0  0  0  0  0  0  0  0  0
  -34.5419    4.2787  -44.2714 C   0  0  0  0  0  0  0  0  0  0  0  0
  -37.4682   -0.9558  -44.4693 X   0  0  0  0  0  0  0  0  0  0  0  0
  1  2  1  0  0  0  0
  1 12  1  0  0  0  0
  2  3  1  0  0  0  0
  3  4  1  0  0  0  0
  3  5  1  0  0  0  0
  3  6  1  0  0  0  0
  4  5  1  0  0  0  0
  6  7  1  0  0  0  0
  6 11  1  0  0  0  0
  7  8  1  0  0  0  0
  8  9  1  0  0  0  0
  9 10  1  0  0  0  0
 10 11  1  0  0  0  0
M  END
> <Index>
11729

> <PropertyFieldDistance>
nan

$$$$
12431264
BBcorina  12272117083D 1   1.00000     0.00000 
CORINA 4.3.0 0026  30.10.2019
 12 12  0  0  0  0  0  0  0  0999 V2000
  -33.7077    3.9285  -40.5585 C   0  0  0  0  0  0  0  0  0  0  0  0
  -35.1043    3.9426  -41.1828 C   0  0  0  0  0  0  0  0  0  0  0  0
  -35.2464    5.1683  -42.0875 C   0  0  0  0  0  0  0  0  0  0  0  0
  -36.6796    5.2477  -42.6204 C   0  0  0  0  0  0  0  0  0  0  0  0
  -36.9723    4.0084  -43.4693 C   0  0  0  0  0  0  0  0  0  0  0  0
  -36.0194    3.9412  -44.5845 N   0  0  0  0  0  0  0  0  0  0  0  0
  -34.6397    3.8168  -44.0972 C   0  0  0  0  0  0  0  0  0  0  0  0
  -34.2763    5.0495  -43.2662 C   0  0  0  0  0  0  0  0  0  0  0  0
  -34.9400    6.3828  -41.3201 N   0  0  0  0  0  0  0  0  0  0  0  0
  -34.9736    7.5723  -42.1815 C   0  0  0  0  0  0  0  0  0  0  0  0
  -35.8563    6.5314  -40.1815 C   0  0  0  0  0  0  0  0  0  0  0  0
  -36.4110    2.6616  -45.6490 X   0  0  0  0  0  0  0  0  0  0  0  0
  1  2  1  0  0  0  0
  2  3  1  0  0  0  0
  3  4  1  0  0  0  0
  3  8  1  0  0  0  0
  3  9  1  0  0  0  0
  4  5  1  0  0  0  0
  5  6  1  0  0  0  0
  6  7  1  0  0  0  0
  6 12  1  0  0  0  0
  7  8  1  0  0  0  0
  9 10  1  0  0  0  0
  9 11  1  0  0  0  0
M  END
> <Index>
11730

> <PropertyFieldDistance>
nan

$$$$
12300920
BBcorina  12272117083D 1   1.00000     0.00000 
CORINA 4.3.0 0026  30.10.2019
 14 15  0  0  0  0  0  0  0  0999 V2000
  -36.3921    2.3707  -46.0132 C   0  0  0  0  0  0  0  0  0  0  0  0
  -36.1239    1.9778  -44.5590 C   0  0  0  0  0  0  0  0  0  0  0  0
  -34.9106    1.0460  -44.4962 C   0  0  0  0  0  0  0  0  0  0  0  0
  -35.2166   -0.2353  -45.2753 C   0  0  0  0  0  0  0  0  0  0  0  0
  -36.3931   -0.8940  -44.6935 N   0  0  0  0  0  0  0  0  0  0  0  0
  -37.5816   -0.0367  -44.7854 C   0  0  0  0  0  0  0  0  0  0  0  0
  -37.3462    1.2505  -43.9917 C   0  0  0  0  0  0  0  0  0  0  0  0
  -35.8579    3.1843  -43.7643 N   0  0  0  0  0  0  0  0  0  0  0  0
  -37.0046    4.1035  -43.8023 C   0  0  0  0  0  0  0  0  0  0  0  0
  -36.7093    5.3161  -42.9154 C   0  0  0  0  0  0  0  0  0  0  0  0
  -35.5003    5.9399  -43.3566 O   0  0  0  0  0  0  0  0  0  0  0  0
  -34.3631    5.0732  -43.3318 C   0  0  0  0  0  0  0  0  0  0  0  0
  -34.6346    3.8582  -44.2229 C   0  0  0  0  0  0  0  0  0  0  0  0
  -36.6736   -2.4108  -45.4315 X   0  0  0  0  0  0  0  0  0  0  0  0
  1  2  1  0  0  0  0
  2  3  1  0  0  0  0
  2  7  1  0  0  0  0
  2  8  1  0  0  0  0
  3  4  1  0  0  0  0
  4  5  1  0  0  0  0
  5  6  1  0  0  0  0
  5 14  1  0  0  0  0
  6  7  1  0  0  0  0
  8  9  1  0  0  0  0
  8 13  1  0  0  0  0
  9 10  1  0  0  0  0
 10 11  1  0  0  0  0
 11 12  1  0  0  0  0
 12 13  1  0  0  0  0
M  END
> <Index>
11731

> <PropertyFieldDistance>
nan

$$$$
17661488
BBcorina  12272117083D 1   1.00000     0.00000 
CORINA 4.3.0 0026  30.10.2019
 11 12  0  0  0  0  0  0  0  0999 V2000
  -32.6768    6.7403  -42.4954 O   0  0  0  0  0  0  0  0  0  0  0  0
  -32.9625    5.6813  -43.4113 C   0  0  0  0  0  0  0  0  0  0  0  0
  -31.7764    4.8986  -43.9784 C   0  0  0  0  0  0  0  0  0  0  0  0
  -32.5450    5.8771  -44.8701 C   0  0  0  0  0  0  0  0  0  0  0  0
  -34.2559    4.9088  -43.1443 C   0  0  0  0  0  0  0  0  0  0  0  0
  -35.3534    5.8832  -42.7079 C   0  0  0  0  0  0  0  0  0  0  0  0
  -36.6587    5.1099  -42.5007 C   0  0  0  0  0  0  0  0  0  0  0  0
  -37.0290    4.3869  -43.7977 C   0  0  0  0  0  0  0  0  0  0  0  0
  -35.9479    3.4664  -44.1723 N   0  0  0  0  0  0  0  0  0  0  0  0
  -34.6958    4.1916  -44.4226 C   0  0  0  0  0  0  0  0  0  0  0  0
  -36.3899    2.5210  -45.5270 X   0  0  0  0  0  0  0  0  0  0  0  0
  1  2  1  0  0  0  0
  2  3  1  0  0  0  0
  2  4  1  0  0  0  0
  2  5  1  0  0  0  0
  3  4  1  0  0  0  0
  5  6  1  0  0  0  0
  5 10  1  0  0  0  0
  6  7  1  0  0  0  0
  7  8  1  0  0  0  0
  8  9  1  0  0  0  0
  9 10  1  0  0  0  0
  9 11  1  0  0  0  0
M  END
> <Index>
11732

> <PropertyFieldDistance>
nan

$$$$
11681376
BBcorina  12272117083D 1   1.00000     0.00000 
CORINA 4.3.0 0026  30.10.2019
 11 12  0  0  0  0  0  0  0  0999 V2000
  -35.2662    5.8389  -40.2061 O   0  0  0  0  0  0  0  0  0  0  0  0
  -34.9467    6.5602  -41.3976 C   0  0  0  0  0  0  0  0  0  0  0  0
  -33.6589    7.3863  -41.3994 C   0  0  0  0  0  0  0  0  0  0  0  0
  -35.0183    8.0874  -41.3396 C   0  0  0  0  0  0  0  0  0  0  0  0
  -35.3535    5.8832  -42.7080 C   0  0  0  0  0  0  0  0  0  0  0  0
  -36.6587    5.1099  -42.5007 C   0  0  0  0  0  0  0  0  0  0  0  0
  -37.0290    4.3869  -43.7977 C   0  0  0  0  0  0  0  0  0  0  0  0
  -35.9480    3.4664  -44.1723 N   0  0  0  0  0  0  0  0  0  0  0  0
  -34.6958    4.1916  -44.4226 C   0  0  0  0  0  0  0  0  0  0  0  0
  -34.2558    4.9088  -43.1443 C   0  0  0  0  0  0  0  0  0  0  0  0
  -36.3899    2.5209  -45.5269 X   0  0  0  0  0  0  0  0  0  0  0  0
  1  2  1  0  0  0  0
  2  3  1  0  0  0  0
  2  4  1  0  0  0  0
  2  5  1  0  0  0  0
  3  4  1  0  0  0  0
  5  6  1  0  0  0  0
  5 10  1  0  0  0  0
  6  7  1  0  0  0  0
  7  8  1  0  0  0  0
  8  9  1  0  0  0  0
  8 11  1  0  0  0  0
  9 10  1  0  0  0  0
M  END
> <Index>
11733

> <PropertyFieldDistance>
nan

$$$$
14057578
BBcorina  12272117083D 1   1.00000     0.00000 
CORINA 4.3.0 0026  30.10.2019
 13 14  0  0  0  0  0  0  0  0999 V2000
  -36.3830    2.3559  -46.0219 C   0  0  0  0  0  0  0  0  0  0  0  0
  -36.1302    1.9821  -44.5600 C   0  0  0  0  0  0  0  0  0  0  0  0
  -34.9462    0.9868  -44.4544 C   0  0  0  0  0  0  0  0  0  0  0  0
  -35.6537   -0.3893  -44.3764 C   0  0  0  0  0  0  0  0  0  0  0  0
  -36.8564   -0.1069  -43.5518 N   0  0  0  0  0  0  0  0  0  0  0  0
  -37.3400    1.2217  -43.9859 C   0  0  0  0  0  0  0  0  0  0  0  0
  -35.8606    3.1869  -43.7638 N   0  0  0  0  0  0  0  0  0  0  0  0
  -37.0059    4.1079  -43.7978 C   0  0  0  0  0  0  0  0  0  0  0  0
  -36.7068    5.3186  -42.9096 C   0  0  0  0  0  0  0  0  0  0  0  0
  -35.4979    5.9413  -43.3524 O   0  0  0  0  0  0  0  0  0  0  0  0
  -34.3618    5.0727  -43.3316 C   0  0  0  0  0  0  0  0  0  0  0  0
  -34.6372    3.8596  -44.2241 C   0  0  0  0  0  0  0  0  0  0  0  0
  -38.0557   -1.3028  -43.7877 X   0  0  0  0  0  0  0  0  0  0  0  0
  1  2  1  0  0  0  0
  2  3  1  0  0  0  0
  2  6  1  0  0  0  0
  2  7  1  0  0  0  0
  3  4  1  0  0  0  0
  4  5  1  0  0  0  0
  5  6  1  0  0  0  0
  5 13  1  0  0  0  0
  7  8  1  0  0  0  0
  7 12  1  0  0  0  0
  8  9  1  0  0  0  0
  9 10  1  0  0  0  0
 10 11  1  0  0  0  0
 11 12  1  0  0  0  0
M  END
> <Index>
11734

> <PropertyFieldDistance>
nan

$$$$
12424668
BBcorina  12272117083D 1   1.00000     0.00000 
CORINA 4.3.0 0026  30.10.2019
 13 14  0  0  0  0  0  0  0  0999 V2000
  -36.4184    1.5714  -44.6294 C   0  0  0  0  0  0  0  0  0  0  0  0
  -36.1535    2.7552  -45.5618 C   0  0  0  0  0  0  0  0  0  0  0  0
  -37.3731    2.9821  -46.4595 C   0  0  0  0  0  0  0  0  0  0  0  0
  -37.5962    1.7443  -47.3312 C   0  0  0  0  0  0  0  0  0  0  0  0
  -36.4020    1.4989  -48.1498 N   0  0  0  0  0  0  0  0  0  0  0  0
  -35.2279    1.2313  -47.3097 C   0  0  0  0  0  0  0  0  0  0  0  0
  -34.9340    2.4540  -46.4374 C   0  0  0  0  0  0  0  0  0  0  0  0
  -35.8993    3.9625  -44.7646 N   0  0  0  0  0  0  0  0  0  0  0  0
  -37.0509    4.2762  -43.8988 C   0  0  0  0  0  0  0  0  0  0  0  0
  -36.5311    4.3253  -42.4466 C   0  0  0  0  0  0  0  0  0  0  0  0
  -35.0147    4.5984  -42.6272 C   0  0  0  0  0  0  0  0  0  0  0  0
  -34.7027    3.7928  -43.9131 C   0  0  0  0  0  0  0  0  0  0  0  0
  -36.6682    0.2214  -49.2548 X   0  0  0  0  0  0  0  0  0  0  0  0
  1  2  1  0  0  0  0
  2  3  1  0  0  0  0
  2  7  1  0  0  0  0
  2  8  1  0  0  0  0
  3  4  1  0  0  0  0
  4  5  1  0  0  0  0
  5  6  1  0  0  0  0
  5 13  1  0  0  0  0
  6  7  1  0  0  0  0
  8  9  1  0  0  0  0
  8 12  1  0  0  0  0
  9 10  1  0  0  0  0
 10 11  1  0  0  0  0
 11 12  1  0  0  0  0
M  END
> <Index>
11737

> <PropertyFieldDistance>
nan

$$$$
15090954
BBcorina  12272117083D 1   1.00000     0.00000 
CORINA 4.3.0 0026  30.10.2019
 12 12  0  0  0  0  0  0  0  0999 V2000
  -35.8992    6.5527  -40.1126 C   0  0  0  0  0  0  0  0  0  0  0  0
  -34.9273    6.4334  -41.2883 C   0  0  0  0  0  0  0  0  0  0  0  0
  -35.0697    7.6583  -42.1939 C   0  0  0  0  0  0  0  0  0  0  0  0
  -33.4939    6.3544  -40.7590 C   0  0  0  0  0  0  0  0  0  0  0  0
  -33.1960    7.5359  -40.0125 O   0  0  0  0  0  0  0  0  0  0  0  0
  -35.2464    5.1685  -42.0875 C   0  0  0  0  0  0  0  0  0  0  0  0
  -36.6796    5.2477  -42.6204 C   0  0  0  0  0  0  0  0  0  0  0  0
  -36.9723    4.0084  -43.4693 C   0  0  0  0  0  0  0  0  0  0  0  0
  -36.0194    3.9411  -44.5845 N   0  0  0  0  0  0  0  0  0  0  0  0
  -34.6397    3.8168  -44.0973 C   0  0  0  0  0  0  0  0  0  0  0  0
  -34.2763    5.0495  -43.2662 C   0  0  0  0  0  0  0  0  0  0  0  0
  -36.4111    2.6615  -45.6489 X   0  0  0  0  0  0  0  0  0  0  0  0
  1  2  1  0  0  0  0
  2  3  1  0  0  0  0
  2  4  1  0  0  0  0
  2  6  1  0  0  0  0
  4  5  1  0  0  0  0
  6  7  1  0  0  0  0
  6 11  1  0  0  0  0
  7  8  1  0  0  0  0
  8  9  1  0  0  0  0
  9 10  1  0  0  0  0
  9 12  1  0  0  0  0
 10 11  1  0  0  0  0
M  END
> <Index>
11738

> <PropertyFieldDistance>
nan

$$$$
17828624
BBcorina  12272117083D 1   1.00000     0.00000 
CORINA 4.3.0 0026  30.10.2019
 11 12  0  0  0  0  0  0  0  0999 V2000
  -36.5728    0.2139  -44.7699 N   0  0  0  0  0  0  0  0  0  0  0  0
  -37.3408    1.3293  -44.1858 C   0  0  0  0  0  0  0  0  0  0  0  0
  -36.3068    2.2881  -44.7927 C   0  0  0  0  0  0  0  0  0  0  0  0
  -35.3751    1.0708  -44.6908 C   0  0  0  0  0  0  0  0  0  0  0  0
  -35.9353    3.4060  -43.9151 N   0  0  0  0  0  0  0  0  0  0  0  0
  -37.0628    4.3215  -43.7255 C   0  0  0  0  0  0  0  0  0  0  0  0
  -36.8156    5.2045  -42.4976 C   0  0  0  0  0  0  0  0  0  0  0  0
  -35.3223    6.2001  -42.7934 S   0  0  0  0  0  0  0  0  0  0  0  0
  -34.1178    4.9314  -43.2918 C   0  0  0  0  0  0  0  0  0  0  0  0
  -34.7364    4.0861  -44.4104 C   0  0  0  0  0  0  0  0  0  0  0  0
  -36.4635   -1.0947  -43.6746 X   0  0  0  0  0  0  0  0  0  0  0  0
  1  2  1  0  0  0  0
  1  4  1  0  0  0  0
  1 11  1  0  0  0  0
  2  3  1  0  0  0  0
  3  4  1  0  0  0  0
  3  5  1  0  0  0  0
  5  6  1  0  0  0  0
  5 10  1  0  0  0  0
  6  7  1  0  0  0  0
  7  8  1  0  0  0  0
  8  9  1  0  0  0  0
  9 10  1  0  0  0  0
M  END
> <Index>
11764

> <PropertyFieldDistance>
nan

$$$$
9395726
BBcorina  12272117083D 1   1.00000     0.00000 
CORINA 4.3.0 0026  30.10.2019
 12 13  0  0  0  0  0  0  0  0999 V2000
  -36.4311    2.6232  -45.2663 C   0  0  0  0  0  0  0  0  0  0  0  0
  -35.9890    3.2949  -44.0369 N   0  0  0  0  0  0  0  0  0  0  0  0
  -37.0103    4.2348  -43.5539 C   0  0  0  0  0  0  0  0  0  0  0  0
  -36.5467    4.8530  -42.2327 C   0  0  0  0  0  0  0  0  0  0  0  0
  -35.2618    5.5360  -42.4387 N   0  0  0  0  0  0  0  0  0  0  0  0
  -34.2406    4.5962  -42.9218 C   0  0  0  0  0  0  0  0  0  0  0  0
  -34.7042    3.9779  -44.2429 C   0  0  0  0  0  0  0  0  0  0  0  0
  -34.8198    6.2078  -41.2094 C   0  0  0  0  0  0  0  0  0  0  0  0
  -33.4212    6.8417  -41.3185 C   0  0  0  0  0  0  0  0  0  0  0  0
  -33.9922    7.9952  -40.5885 N   0  0  0  0  0  0  0  0  0  0  0  0
  -35.3516    7.6448  -41.0631 C   0  0  0  0  0  0  0  0  0  0  0  0
  -33.4652    9.4728  -41.2689 X   0  0  0  0  0  0  0  0  0  0  0  0
  1  2  1  0  0  0  0
  2  3  1  0  0  0  0
  2  7  1  0  0  0  0
  3  4  1  0  0  0  0
  4  5  1  0  0  0  0
  5  6  1  0  0  0  0
  5  8  1  0  0  0  0
  6  7  1  0  0  0  0
  8  9  1  0  0  0  0
  8 11  1  0  0  0  0
  9 10  1  0  0  0  0
 10 11  1  0  0  0  0
 10 12  1  0  0  0  0
M  END
> <Index>
11785

> <PropertyFieldDistance>
nan

$$$$
9456736
BBcorina  12272117083D 1   1.00000     0.00000 
CORINA 4.3.0 0026  30.10.2019
 12 12  0  0  0  0  0  0  0  0999 V2000
  -36.3495    2.3571  -44.9464 C   0  0  0  0  0  0  0  0  0  0  0  0
  -36.0372    3.6631  -44.3508 N   0  0  0  0  0  0  0  0  0  0  0  0
  -36.9513    3.9682  -43.2428 C   0  0  0  0  0  0  0  0  0  0  0  0
  -36.6923    5.3914  -42.7433 C   0  0  0  0  0  0  0  0  0  0  0  0
  -35.2384    5.5067  -42.2767 C   0  0  0  0  0  0  0  0  0  0  0  0
  -34.3080    5.1368  -43.4352 C   0  0  0  0  0  0  0  0  0  0  0  0
  -34.5077    6.1250  -44.5860 C   0  0  0  0  0  0  0  0  0  0  0  0
  -32.8546    5.1912  -42.9604 C   0  0  0  0  0  0  0  0  0  0  0  0
  -34.6362    3.7211  -43.9146 C   0  0  0  0  0  0  0  0  0  0  0  0
  -33.7222    3.3548  -45.0856 C   0  0  0  0  0  0  0  0  0  0  0  0
  -33.9510    1.9544  -45.4660 N   0  0  0  0  0  0  0  0  0  0  0  0
  -32.9470    1.5028  -46.7744 X   0  0  0  0  0  0  0  0  0  0  0  0
  1  2  1  0  0  0  0
  2  3  1  0  0  0  0
  2  9  1  0  0  0  0
  3  4  1  0  0  0  0
  4  5  1  0  0  0  0
  5  6  1  0  0  0  0
  6  7  1  0  0  0  0
  6  8  1  0  0  0  0
  6  9  1  0  0  0  0
  9 10  1  0  0  0  0
 10 11  1  0  0  0  0
 11 12  1  0  0  0  0
M  END
> <Index>
11804

> <PropertyFieldDistance>
nan

$$$$
9322036
BBcorina  12272117083D 1   1.00000     0.00000 
CORINA 4.3.0 0026  30.10.2019
 10 10  0  0  0  0  0  0  0  0999 V2000
  -36.5467    7.2702  -41.4465 C   0  0  0  0  0  0  0  0  0  0  0  0
  -36.1272    6.2216  -42.4786 C   0  0  0  0  0  0  0  0  0  0  0  0
  -37.2555    5.1842  -42.6129 C   0  0  0  0  0  0  0  0  0  0  0  0
  -36.8610    3.8832  -43.3157 C   0  0  0  0  0  0  0  0  0  0  0  0
  -36.0120    4.1994  -44.4565 N   0  0  0  0  0  0  0  0  0  0  0  0
  -34.6307    3.8515  -44.0951 C   0  0  0  0  0  0  0  0  0  0  0  0
  -33.8282    4.9453  -43.5575 C   0  0  0  0  0  0  0  0  0  0  0  0
  -34.5588    5.4997  -41.9658 S   0  0  0  0  0  0  0  0  0  0  0  0
  -33.7377    6.5083  -41.3935 O   0  0  0  0  0  0  0  0  0  0  0  0
  -36.5146    3.3452  -45.8500 X   0  0  0  0  0  0  0  0  0  0  0  0
  1  2  1  0  0  0  0
  2  3  1  0  0  0  0
  2  8  1  0  0  0  0
  3  4  1  0  0  0  0
  4  5  1  0  0  0  0
  5  6  1  0  0  0  0
  5 10  1  0  0  0  0
  6  7  1  0  0  0  0
  7  8  1  0  0  0  0
  8  9  2  0  0  0  0
M  END
> <Index>
11826

> <PropertyFieldDistance>
nan

$$$$
11618768
BBcorina  12272117083D 1   1.00000     0.00000 
CORINA 4.3.0 0026  30.10.2019
 11 11  0  0  0  0  0  0  0  0999 V2000
  -38.0560   -0.3577  -46.2101 C   0  0  0  0  0  0  0  0  0  0  0  0
  -37.0495    0.6955  -46.3992 N   0  0  0  0  0  0  0  0  0  0  0  0
  -36.9052    1.5099  -45.1852 C   0  0  0  0  0  0  0  0  0  0  0  0
  -35.8508    2.5933  -45.4202 C   0  0  0  0  0  0  0  0  0  0  0  0
  -35.7064    3.4078  -44.2062 N   0  0  0  0  0  0  0  0  0  0  0  0
  -36.9352    4.1628  -43.9298 C   0  0  0  0  0  0  0  0  0  0  0  0
  -36.8018    4.8830  -42.5862 C   0  0  0  0  0  0  0  0  0  0  0  0
  -35.5994    5.8298  -42.6374 C   0  0  0  0  0  0  0  0  0  0  0  0
  -34.3407    5.0258  -42.9745 C   0  0  0  0  0  0  0  0  0  0  0  0
  -34.5455    4.3014  -44.3069 C   0  0  0  0  0  0  0  0  0  0  0  0
  -35.5472    0.0295  -46.8726 X   0  0  0  0  0  0  0  0  0  0  0  0
  1  2  1  0  0  0  0
  2  3  1  0  0  0  0
  2 11  1  0  0  0  0
  3  4  1  0  0  0  0
  4  5  1  0  0  0  0
  5  6  1  0  0  0  0
  5 10  1  0  0  0  0
  6  7  1  0  0  0  0
  7  8  1  0  0  0  0
  8  9  1  0  0  0  0
  9 10  1  0  0  0  0
M  END
> <Index>
11850

> <PropertyFieldDistance>
nan

$$$$
9329764
BBcorina  12272117083D 1   1.00000     0.00000 
CORINA 4.3.0 0026  30.10.2019
 10 11  0  0  0  0  0  0  0  0999 V2000
  -38.3593    3.7429  -43.6351 C   0  0  0  0  0  0  0  0  0  0  0  0
  -37.0322    4.4799  -43.8263 C   0  0  0  0  0  0  0  0  0  0  0  0
  -36.4467    4.8726  -42.4540 C   0  0  0  0  0  0  0  0  0  0  0  0
  -35.0723    4.1933  -42.4065 C   0  0  0  0  0  0  0  0  0  0  0  0
  -33.9982    4.9044  -41.5904 C   0  0  0  0  0  0  0  0  0  0  0  0
  -33.5152    3.5031  -41.1718 C   0  0  0  0  0  0  0  0  0  0  0  0
  -34.9428    3.0033  -41.4618 C   0  0  0  0  0  0  0  0  0  0  0  0
  -34.7287    3.9226  -43.8801 C   0  0  0  0  0  0  0  0  0  0  0  0
  -36.0502    3.5880  -44.4826 N   0  0  0  0  0  0  0  0  0  0  0  0
  -36.0371    3.8311  -46.1752 X   0  0  0  0  0  0  0  0  0  0  0  0
  1  2  1  0  0  0  0
  2  3  1  0  0  0  0
  2  9  1  0  0  0  0
  3  4  1  0  0  0  0
  4  5  1  0  0  0  0
  4  7  1  0  0  0  0
  4  8  1  0  0  0  0
  5  6  1  0  0  0  0
  6  7  1  0  0  0  0
  8  9  1  0  0  0  0
  9 10  1  0  0  0  0
M  END
> <Index>
11857

> <PropertyFieldDistance>
nan

$$$$
9395736
BBcorina  12272117083D 1   1.00000     0.00000 
CORINA 4.3.0 0026  30.10.2019
 10 11  0  0  0  0  0  0  0  0999 V2000
  -36.0444    2.5708  -44.9253 C   0  0  0  0  0  0  0  0  0  0  0  0
  -36.5665    3.1757  -43.6927 N   0  0  0  0  0  0  0  0  0  0  0  0
  -37.0756    4.5449  -43.9471 C   0  0  0  0  0  0  0  0  0  0  0  0
  -36.3646    4.9245  -42.6539 C   0  0  0  0  0  0  0  0  0  0  0  0
  -35.4659    3.7107  -42.8557 C   0  0  0  0  0  0  0  0  0  0  0  0
  -37.2273    4.9325  -41.3796 C   0  0  0  0  0  0  0  0  0  0  0  0
  -37.6418    6.4169  -41.2589 C   0  0  0  0  0  0  0  0  0  0  0  0
  -36.6780    7.2108  -42.0450 N   0  0  0  0  0  0  0  0  0  0  0  0
  -35.6722    6.2933  -42.6292 C   0  0  0  0  0  0  0  0  0  0  0  0
  -35.9293    8.4026  -41.0739 X   0  0  0  0  0  0  0  0  0  0  0  0
  1  2  1  0  0  0  0
  2  3  1  0  0  0  0
  2  5  1  0  0  0  0
  3  4  1  0  0  0  0
  4  5  1  0  0  0  0
  4  6  1  0  0  0  0
  4  9  1  0  0  0  0
  6  7  1  0  0  0  0
  7  8  1  0  0  0  0
  8  9  1  0  0  0  0
  8 10  1  0  0  0  0
M  END
> <Index>
11868

> <PropertyFieldDistance>
nan

$$$$
9395740
BBcorina  12272117083D 1   1.00000     0.00000 
CORINA 4.3.0 0026  30.10.2019
 14 15  0  0  0  0  0  0  0  0999 V2000
  -38.9652    0.1340  -45.9071 F   0  0  0  0  0  0  0  0  0  0  0  0
  -37.8484    0.8927  -45.9564 C   0  0  0  0  0  0  0  0  0  0  0  0
  -37.0329    0.8677  -47.0754 C   0  0  0  0  0  0  0  0  0  0  0  0
  -35.9407    1.6042  -47.1338 N   0  0  0  0  0  0  0  0  0  0  0  0
  -35.5786    2.3902  -46.1399 C   0  0  0  0  0  0  0  0  0  0  0  0
  -36.3447    2.4705  -44.9835 C   0  0  0  0  0  0  0  0  0  0  0  0
  -37.5017    1.7024  -44.8844 C   0  0  0  0  0  0  0  0  0  0  0  0
  -35.9566    3.3059  -43.9331 N   0  0  0  0  0  0  0  0  0  0  0  0
  -37.0245    4.2577  -43.5950 C   0  0  0  0  0  0  0  0  0  0  0  0
  -36.5917    5.0987  -42.3916 C   0  0  0  0  0  0  0  0  0  0  0  0
  -35.3433    5.8041  -42.7134 N   0  0  0  0  0  0  0  0  0  0  0  0
  -34.2759    4.8523  -43.0515 C   0  0  0  0  0  0  0  0  0  0  0  0
  -34.7083    4.0113  -44.2548 C   0  0  0  0  0  0  0  0  0  0  0  0
  -34.8682    6.8265  -41.4276 X   0  0  0  0  0  0  0  0  0  0  0  0
  1  2  1  0  0  0  0
  2  3  2  0  0  0  0
  2  7  1  0  0  0  0
  3  4  1  0  0  0  0
  4  5  2  0  0  0  0
  5  6  1  0  0  0  0
  6  7  2  0  0  0  0
  6  8  1  0  0  0  0
  8  9  1  0  0  0  0
  8 13  1  0  0  0  0
  9 10  1  0  0  0  0
 10 11  1  0  0  0  0
 11 12  1  0  0  0  0
 11 14  1  0  0  0  0
 12 13  1  0  0  0  0
M  END
> <Index>
11872

> <PropertyFieldDistance>
nan

$$$$
16630888
BBcorina  12272117083D 1   1.00000     0.00000 
CORINA 4.3.0 0026  30.10.2019
 13 13  0  0  0  0  0  0  0  0999 V2000
  -33.5718    0.0924  -45.2483 C   0  0  0  0  0  0  0  0  0  0  0  0
  -34.6556    0.8825  -44.5121 C   0  0  0  0  0  0  0  0  0  0  0  0
  -35.5741    1.5598  -45.5312 C   0  0  0  0  0  0  0  0  0  0  0  0
  -36.2941    0.5347  -46.2987 N   0  0  0  0  0  0  0  0  0  0  0  0
  -36.5655    2.4359  -44.8097 C   0  0  0  0  0  0  0  0  0  0  0  0
  -37.6955    2.0405  -44.6157 O   0  0  0  0  0  0  0  0  0  0  0  0
  -36.1965    3.6588  -44.3800 N   0  0  0  0  0  0  0  0  0  0  0  0
  -37.1517    4.5244  -43.6752 C   0  0  0  0  0  0  0  0  0  0  0  0
  -36.5316    4.9622  -42.3445 C   0  0  0  0  0  0  0  0  0  0  0  0
  -35.1716    5.6120  -42.6095 C   0  0  0  0  0  0  0  0  0  0  0  0
  -34.2368    4.5935  -43.2661 C   0  0  0  0  0  0  0  0  0  0  0  0
  -34.8294    4.1493  -44.6022 C   0  0  0  0  0  0  0  0  0  0  0  0
  -37.2451   -0.4457  -45.2699 X   0  0  0  0  0  0  0  0  0  0  0  0
  1  2  1  0  0  0  0
  2  3  1  0  0  0  0
  3  4  1  0  0  0  0
  3  5  1  0  0  0  0
  4 13  1  0  0  0  0
  5  6  2  0  0  0  0
  5  7  1  0  0  0  0
  7  8  1  0  0  0  0
  7 12  1  0  0  0  0
  8  9  1  0  0  0  0
  9 10  1  0  0  0  0
 10 11  1  0  0  0  0
 11 12  1  0  0  0  0
M  END
> <Index>
11879

> <PropertyFieldDistance>
nan

$$$$
10329780
BBcorina  12272117083D 1   1.00000     0.00000 
CORINA 4.3.0 0026  30.10.2019
 13 14  0  0  0  0  0  0  0  0999 V2000
  -33.4688    6.8237  -38.2249 N   0  0  0  0  0  0  0  0  0  0  0  0
  -34.1175    6.9451  -39.4435 C   0  0  0  0  0  0  0  0  0  0  0  0
  -34.7280    8.0135  -39.8990 N   0  0  0  0  0  0  0  0  0  0  0  0
  -35.2136    7.7752  -41.0649 N   0  0  0  0  0  0  0  0  0  0  0  0
  -34.9521    6.5478  -41.4154 C   0  0  0  0  0  0  0  0  0  0  0  0
  -34.2413    5.9765  -40.3965 N   0  0  0  0  0  0  0  0  0  0  0  0
  -35.3532    5.8831  -42.7070 C   0  0  0  0  0  0  0  0  0  0  0  0
  -36.6587    5.1099  -42.5007 C   0  0  0  0  0  0  0  0  0  0  0  0
  -37.0290    4.3869  -43.7977 C   0  0  0  0  0  0  0  0  0  0  0  0
  -35.9480    3.4664  -44.1723 N   0  0  0  0  0  0  0  0  0  0  0  0
  -34.6958    4.1917  -44.4226 C   0  0  0  0  0  0  0  0  0  0  0  0
  -34.2558    4.9088  -43.1443 C   0  0  0  0  0  0  0  0  0  0  0  0
  -36.3899    2.5211  -45.5270 X   0  0  0  0  0  0  0  0  0  0  0  0
  1  2  1  0  0  0  0
  2  3  2  0  0  0  0
  2  6  1  0  0  0  0
  3  4  1  0  0  0  0
  4  5  2  0  0  0  0
  5  6  1  0  0  0  0
  5  7  1  0  0  0  0
  7  8  1  0  0  0  0
  7 12  1  0  0  0  0
  8  9  1  0  0  0  0
  9 10  1  0  0  0  0
 10 11  1  0  0  0  0
 10 13  1  0  0  0  0
 11 12  1  0  0  0  0
M  END
> <Index>
11880

> <PropertyFieldDistance>
nan

$$$$
16608376
BBcorina  12272117083D 1   1.00000     0.00000 
CORINA 4.3.0 0026  30.10.2019
 14 15  0  0  0  0  0  0  0  0999 V2000
  -36.2571   -1.1542  -44.4596 N   0  0  0  0  0  0  0  0  0  0  0  0
  -36.7013   -0.4839  -45.6889 C   0  0  0  0  0  0  0  0  0  0  0  0
  -35.5574    0.3635  -46.2496 C   0  0  0  0  0  0  0  0  0  0  0  0
  -35.1468    1.4140  -45.2159 C   0  0  0  0  0  0  0  0  0  0  0  0
  -36.3427    2.3152  -44.9018 C   0  0  0  0  0  0  0  0  0  0  0  0
  -37.4866    1.4678  -44.3411 C   0  0  0  0  0  0  0  0  0  0  0  0
  -37.8972    0.4173  -45.3749 C   0  0  0  0  0  0  0  0  0  0  0  0
  -35.9485    3.3238  -43.9092 N   0  0  0  0  0  0  0  0  0  0  0  0
  -37.0377    4.2819  -43.6704 C   0  0  0  0  0  0  0  0  0  0  0  0
  -36.6072    5.2766  -42.5891 C   0  0  0  0  0  0  0  0  0  0  0  0
  -35.3979    5.9222  -42.9967 O   0  0  0  0  0  0  0  0  0  0  0  0
  -34.3157    5.0188  -43.2373 C   0  0  0  0  0  0  0  0  0  0  0  0
  -34.7230    4.0215  -44.3252 C   0  0  0  0  0  0  0  0  0  0  0  0
  -35.4346   -2.6098  -44.8182 X   0  0  0  0  0  0  0  0  0  0  0  0
  1  2  1  0  0  0  0
  1 14  1  0  0  0  0
  2  3  1  0  0  0  0
  2  7  1  0  0  0  0
  3  4  1  0  0  0  0
  4  5  1  0  0  0  0
  5  6  1  0  0  0  0
  5  8  1  0  0  0  0
  6  7  1  0  0  0  0
  8  9  1  0  0  0  0
  8 13  1  0  0  0  0
  9 10  1  0  0  0  0
 10 11  1  0  0  0  0
 11 12  1  0  0  0  0
 12 13  1  0  0  0  0
M  END
> <Index>
11882

> <PropertyFieldDistance>
nan

$$$$
11761334
BBcorina  12272117083D 1   1.00000     0.00000 
CORINA 4.3.0 0026  30.10.2019
 13 14  0  0  0  0  0  0  0  0999 V2000
  -35.2145    0.3371  -44.2241 C   0  0  0  0  0  0  0  0  0  0  0  0
  -36.0246    1.1590  -45.1265 N   0  0  0  0  0  0  0  0  0  0  0  0
  -36.6143    0.7653  -46.2957 C   0  0  0  0  0  0  0  0  0  0  0  0
  -37.2410    1.7994  -46.7811 N   0  0  0  0  0  0  0  0  0  0  0  0
  -37.0808    2.8143  -46.0088 N   0  0  0  0  0  0  0  0  0  0  0  0
  -36.3423    2.4776  -44.9779 C   0  0  0  0  0  0  0  0  0  0  0  0
  -35.9573    3.3052  -43.9351 N   0  0  0  0  0  0  0  0  0  0  0  0
  -37.0245    4.2569  -43.5964 C   0  0  0  0  0  0  0  0  0  0  0  0
  -36.5921    5.0969  -42.3922 C   0  0  0  0  0  0  0  0  0  0  0  0
  -35.3437    5.8024  -42.7132 N   0  0  0  0  0  0  0  0  0  0  0  0
  -34.2764    4.8507  -43.0519 C   0  0  0  0  0  0  0  0  0  0  0  0
  -34.7087    4.0107  -44.2561 C   0  0  0  0  0  0  0  0  0  0  0  0
  -34.8685    6.8236  -41.4266 X   0  0  0  0  0  0  0  0  0  0  0  0
  1  2  1  0  0  0  0
  2  3  1  0  0  0  0
  2  6  1  0  0  0  0
  3  4  2  0  0  0  0
  4  5  1  0  0  0  0
  5  6  2  0  0  0  0
  6  7  1  0  0  0  0
  7  8  1  0  0  0  0
  7 12  1  0  0  0  0
  8  9  1  0  0  0  0
  9 10  1  0  0  0  0
 10 11  1  0  0  0  0
 10 13  1  0  0  0  0
 11 12  1  0  0  0  0
M  END
> <Index>
11884

> <PropertyFieldDistance>
nan

$$$$
14421214
BBcorina  12272117083D 1   1.00000     0.00000 
CORINA 4.3.0 0026  30.10.2019
  9  9  0  0  0  0  0  0  0  0999 V2000
  -37.2952    4.4012  -41.4060 O   0  0  0  0  0  0  0  0  0  0  0  0
  -36.4463    4.8695  -42.4559 C   0  0  0  0  0  0  0  0  0  0  0  0
  -37.0296    4.4826  -43.8276 C   0  0  0  0  0  0  0  0  0  0  0  0
  -36.0495    3.5864  -44.4785 N   0  0  0  0  0  0  0  0  0  0  0  0
  -34.7323    3.9246  -43.8810 C   0  0  0  0  0  0  0  0  0  0  0  0
  -35.0715    4.1656  -42.3886 C   0  0  0  0  0  0  0  0  0  0  0  0
  -35.1702    2.9514  -41.7009 F   0  0  0  0  0  0  0  0  0  0  0  0
  -34.1180    4.9978  -41.7924 F   0  0  0  0  0  0  0  0  0  0  0  0
  -36.0331    3.8232  -46.1720 X   0  0  0  0  0  0  0  0  0  0  0  0
  1  2  1  0  0  0  0
  2  3  1  0  0  0  0
  2  6  1  0  0  0  0
  3  4  1  0  0  0  0
  4  5  1  0  0  0  0
  4  9  1  0  0  0  0
  5  6  1  0  0  0  0
  6  7  1  0  0  0  0
  6  8  1  0  0  0  0
M  END
> <Index>
11893

> <PropertyFieldDistance>
nan

$$$$
14472590
BBcorina  12272117083D 1   1.00000     0.00000 
CORINA 4.3.0 0026  30.10.2019
 11 12  0  0  0  0  0  0  0  0999 V2000
  -36.0072    3.4353  -44.3463 N   0  0  0  0  0  0  0  0  0  0  0  0
  -36.9522    4.5526  -44.1282 C   0  0  0  0  0  0  0  0  0  0  0  0
  -36.0750    5.8311  -44.1690 C   0  0  0  0  0  0  0  0  0  0  0  0
  -34.7787    5.3381  -43.4969 C   0  0  0  0  0  0  0  0  0  0  0  0
  -33.5735    6.1637  -43.9652 C   0  0  0  0  0  0  0  0  0  0  0  0
  -32.6982    6.1827  -42.6877 C   0  0  0  0  0  0  0  0  0  0  0  0
  -33.6805    5.9494  -41.5595 C   0  0  0  0  0  0  0  0  0  0  0  0
  -33.4559    6.1639  -40.3871 O   0  0  0  0  0  0  0  0  0  0  0  0
  -34.8411    5.4690  -42.0483 N   0  0  0  0  0  0  0  0  0  0  0  0
  -34.6572    3.8765  -43.9407 C   0  0  0  0  0  0  0  0  0  0  0  0
  -36.4872    2.0471  -43.4707 X   0  0  0  0  0  0  0  0  0  0  0  0
  1  2  1  0  0  0  0
  1 10  1  0  0  0  0
  1 11  1  0  0  0  0
  2  3  1  0  0  0  0
  3  4  1  0  0  0  0
  4  5  1  0  0  0  0
  4  9  1  0  0  0  0
  4 10  1  0  0  0  0
  5  6  1  0  0  0  0
  6  7  1  0  0  0  0
  7  8  2  0  0  0  0
  7  9  1  0  0  0  0
M  END
> <Index>
11895

> <PropertyFieldDistance>
nan

$$$$
11731048
BBcorina  12272117083D 1   1.00000     0.00000 
CORINA 4.3.0 0026  30.10.2019
 11 12  0  0  0  0  0  0  0  0999 V2000
  -31.9424    5.0155  -44.0459 F   0  0  0  0  0  0  0  0  0  0  0  0
  -32.8248    5.3687  -43.0193 C   0  0  0  0  0  0  0  0  0  0  0  0
  -32.5739    6.6002  -42.4047 F   0  0  0  0  0  0  0  0  0  0  0  0
  -33.3785    4.2418  -42.1442 C   0  0  0  0  0  0  0  0  0  0  0  0
  -34.2826    4.9355  -43.1620 C   0  0  0  0  0  0  0  0  0  0  0  0
  -35.3641    5.8805  -42.6274 C   0  0  0  0  0  0  0  0  0  0  0  0
  -36.6677    5.0906  -42.4777 C   0  0  0  0  0  0  0  0  0  0  0  0
  -37.0081    4.4198  -43.8100 C   0  0  0  0  0  0  0  0  0  0  0  0
  -35.9526    3.4654  -44.1703 N   0  0  0  0  0  0  0  0  0  0  0  0
  -34.6763    4.1524  -44.4177 C   0  0  0  0  0  0  0  0  0  0  0  0
  -36.4134    2.5234  -45.5211 X   0  0  0  0  0  0  0  0  0  0  0  0
  1  2  1  0  0  0  0
  2  3  1  0  0  0  0
  2  4  1  0  0  0  0
  2  5  1  0  0  0  0
  4  5  1  0  0  0  0
  5  6  1  0  0  0  0
  5 10  1  0  0  0  0
  6  7  1  0  0  0  0
  7  8  1  0  0  0  0
  8  9  1  0  0  0  0
  9 10  1  0  0  0  0
  9 11  1  0  0  0  0
M  END
> <Index>
11896

> <PropertyFieldDistance>
nan

$$$$
9438594
BBcorina  12272117083D 1   1.00000     0.00000 
CORINA 4.3.0 0026  30.10.2019
  8  9  0  0  0  0  0  0  0  0999 V2000
  -36.0037    2.5713  -41.8498 N   0  0  0  0  0  0  0  0  0  0  0  0
  -36.7992    2.5673  -43.0848 C   0  0  0  0  0  0  0  0  0  0  0  0
  -36.0615    2.3002  -44.3983 C   0  0  0  0  0  0  0  0  0  0  0  0
  -34.5208    2.3794  -44.3983 C   0  0  0  0  0  0  0  0  0  0  0  0
  -34.2172    3.8718  -44.6809 C   0  0  0  0  0  0  0  0  0  0  0  0
  -35.3275    4.6029  -43.8859 C   0  0  0  0  0  0  0  0  0  0  0  0
  -36.5743    3.7139  -44.0725 C   0  0  0  0  0  0  0  0  0  0  0  0
  -35.8725    0.9949  -41.2003 X   0  0  0  0  0  0  0  0  0  0  0  0
  1  2  1  0  0  0  0
  1  8  1  0  0  0  0
  2  3  1  0  0  0  0
  2  7  1  0  0  0  0
  3  4  1  0  0  0  0
  3  7  1  0  0  0  0
  4  5  1  0  0  0  0
  5  6  1  0  0  0  0
  6  7  1  0  0  0  0
M  END
> <Index>
11940

> <PropertyFieldDistance>
nan

$$$$
9447134
BBcorina  12272117083D 1   1.00000     0.00000 
CORINA 4.3.0 0026  30.10.2019
 14 15  0  0  0  0  0  0  0  0999 V2000
  -36.0382   -0.2213  -48.7201 N   0  0  0  0  0  0  0  0  0  0  0  0
  -36.5499   -0.6490  -47.4112 C   0  0  0  0  0  0  0  0  0  0  0  0
  -36.6183    0.5386  -46.4861 C   0  0  0  0  0  0  0  0  0  0  0  0
  -37.6601    1.3576  -46.3391 C   0  0  0  0  0  0  0  0  0  0  0  0
  -37.4771    2.3275  -45.4608 N   0  0  0  0  0  0  0  0  0  0  0  0
  -36.3252    2.3703  -44.8665 C   0  0  0  0  0  0  0  0  0  0  0  0
  -35.3327    1.0913  -45.4157 S   0  0  0  0  0  0  0  0  0  0  0  0
  -35.9529    3.3155  -43.9234 N   0  0  0  0  0  0  0  0  0  0  0  0
  -37.0412    4.2735  -43.6796 C   0  0  0  0  0  0  0  0  0  0  0  0
  -36.6106    5.2606  -42.5915 C   0  0  0  0  0  0  0  0  0  0  0  0
  -35.3999    5.9072  -42.9935 O   0  0  0  0  0  0  0  0  0  0  0  0
  -34.3188    5.0038  -43.2387 C   0  0  0  0  0  0  0  0  0  0  0  0
  -34.7261    4.0141  -44.3334 C   0  0  0  0  0  0  0  0  0  0  0  0
  -35.9446   -1.5416  -49.8027 X   0  0  0  0  0  0  0  0  0  0  0  0
  1  2  1  0  0  0  0
  1 14  1  0  0  0  0
  2  3  1  0  0  0  0
  3  4  2  0  0  0  0
  3  7  1  0  0  0  0
  4  5  1  0  0  0  0
  5  6  2  0  0  0  0
  6  7  1  0  0  0  0
  6  8  1  0  0  0  0
  8  9  1  0  0  0  0
  8 13  1  0  0  0  0
  9 10  1  0  0  0  0
 10 11  1  0  0  0  0
 11 12  1  0  0  0  0
 12 13  1  0  0  0  0
M  END
> <Index>
11946

> <PropertyFieldDistance>
nan

$$$$
12217452
BBcorina  12272117083D 1   1.00000     0.00000 
CORINA 4.3.0 0026  30.10.2019
 13 13  0  0  0  0  0  0  0  0999 V2000
  -39.3394    5.0867  -43.1042 N   0  0  0  0  0  0  0  0  0  0  0  0
  -38.3962    4.5762  -43.9205 C   0  0  0  0  0  0  0  0  0  0  0  0
  -38.6076    4.4892  -45.1115 O   0  0  0  0  0  0  0  0  0  0  0  0
  -37.0789    4.1136  -43.3532 C   0  0  0  0  0  0  0  0  0  0  0  0
  -36.2984    5.3072  -42.7620 C   0  0  0  0  0  0  0  0  0  0  0  0
  -34.8202    5.0279  -43.1033 C   0  0  0  0  0  0  0  0  0  0  0  0
  -34.8320    3.6891  -43.8720 C   0  0  0  0  0  0  0  0  0  0  0  0
  -36.2036    3.5924  -44.4344 N   0  0  0  0  0  0  0  0  0  0  0  0
  -36.5418    2.2007  -44.7608 C   0  0  0  0  0  0  0  0  0  0  0  0
  -35.8012    1.7804  -46.0319 C   0  0  0  0  0  0  0  0  0  0  0  0
  -36.1536    0.3308  -46.3718 C   0  0  0  0  0  0  0  0  0  0  0  0
  -35.4424   -0.0726  -47.5922 N   0  0  0  0  0  0  0  0  0  0  0  0
  -35.8089   -1.6902  -48.0086 X   0  0  0  0  0  0  0  0  0  0  0  0
  1  2  1  0  0  0  0
  2  3  2  0  0  0  0
  2  4  1  0  0  0  0
  4  5  1  0  0  0  0
  4  8  1  0  0  0  0
  5  6  1  0  0  0  0
  6  7  1  0  0  0  0
  7  8  1  0  0  0  0
  8  9  1  0  0  0  0
  9 10  1  0  0  0  0
 10 11  1  0  0  0  0
 11 12  1  0  0  0  0
 12 13  1  0  0  0  0
M  END
> <Index>
11955

> <PropertyFieldDistance>
nan

$$$$
16510988
BBcorina  12272117083D 1   1.00000     0.00000 
CORINA 4.3.0 0026  30.10.2019
 12 12  0  0  0  0  0  0  0  0999 V2000
  -35.5758    7.3324  -38.7779 F   0  0  0  0  0  0  0  0  0  0  0  0
  -35.6266    8.2457  -39.8362 C   0  0  0  0  0  0  0  0  0  0  0  0
  -34.3929    8.8953  -39.9513 F   0  0  0  0  0  0  0  0  0  0  0  0
  -35.9144    7.5513  -41.0515 O   0  0  0  0  0  0  0  0  0  0  0  0
  -34.9460    6.5589  -41.3971 C   0  0  0  0  0  0  0  0  0  0  0  0
  -35.3535    5.8833  -42.7079 C   0  0  0  0  0  0  0  0  0  0  0  0
  -36.6585    5.1099  -42.5008 C   0  0  0  0  0  0  0  0  0  0  0  0
  -37.0291    4.3869  -43.7977 C   0  0  0  0  0  0  0  0  0  0  0  0
  -35.9480    3.4664  -44.1723 N   0  0  0  0  0  0  0  0  0  0  0  0
  -34.6958    4.1916  -44.4226 C   0  0  0  0  0  0  0  0  0  0  0  0
  -34.2559    4.9088  -43.1442 C   0  0  0  0  0  0  0  0  0  0  0  0
  -36.3899    2.5211  -45.5270 X   0  0  0  0  0  0  0  0  0  0  0  0
  1  2  1  0  0  0  0
  2  3  1  0  0  0  0
  2  4  1  0  0  0  0
  4  5  1  0  0  0  0
  5  6  1  0  0  0  0
  6  7  1  0  0  0  0
  6 11  1  0  0  0  0
  7  8  1  0  0  0  0
  8  9  1  0  0  0  0
  9 10  1  0  0  0  0
  9 12  1  0  0  0  0
 10 11  1  0  0  0  0
M  END
> <Index>
11958

> <PropertyFieldDistance>
nan

$$$$
13142100
BBcorina  12272117083D 1   1.00000     0.00000 
CORINA 4.3.0 0026  30.10.2019
 11 12  0  0  0  0  0  0  0  0999 V2000
  -36.0223    2.4884  -44.8940 C   0  0  0  0  0  0  0  0  0  0  0  0
  -35.9683    3.4455  -43.7809 N   0  0  0  0  0  0  0  0  0  0  0  0
  -37.2970    4.0614  -43.5445 C   0  0  0  0  0  0  0  0  0  0  0  0
  -36.9229    5.2962  -42.7082 C   0  0  0  0  0  0  0  0  0  0  0  0
  -35.7113    5.8344  -43.4759 C   0  0  0  0  0  0  0  0  0  0  0  0
  -35.0945    4.5874  -44.1078 C   0  0  0  0  0  0  0  0  0  0  0  0
  -33.6697    4.3587  -43.5976 C   0  0  0  0  0  0  0  0  0  0  0  0
  -32.8045    4.4160  -44.8658 C   0  0  0  0  0  0  0  0  0  0  0  0
  -33.7372    3.9766  -45.9280 N   0  0  0  0  0  0  0  0  0  0  0  0
  -34.9564    4.7560  -45.6249 C   0  0  0  0  0  0  0  0  0  0  0  0
  -33.1297    4.3672  -47.4779 X   0  0  0  0  0  0  0  0  0  0  0  0
  1  2  1  0  0  0  0
  2  3  1  0  0  0  0
  2  6  1  0  0  0  0
  3  4  1  0  0  0  0
  4  5  1  0  0  0  0
  5  6  1  0  0  0  0
  6  7  1  0  0  0  0
  6 10  1  0  0  0  0
  7  8  1  0  0  0  0
  8  9  1  0  0  0  0
  9 10  1  0  0  0  0
  9 11  1  0  0  0  0
M  END
> <Index>
11962

> <PropertyFieldDistance>
nan

$$$$
9447142
BBcorina  12272117083D 1   1.00000     0.00000 
CORINA 4.3.0 0026  30.10.2019
 15 16  0  0  0  0  0  0  0  0999 V2000
  -33.6047    7.0160  -41.2783 N   0  0  0  0  0  0  0  0  0  0  0  0
  -34.9607    6.9329  -41.8372 C   0  0  0  0  0  0  0  0  0  0  0  0
  -35.2421    5.4960  -42.2813 C   0  0  0  0  0  0  0  0  0  0  0  0
  -36.6958    5.3801  -42.7481 C   0  0  0  0  0  0  0  0  0  0  0  0
  -36.9540    3.9569  -43.2478 C   0  0  0  0  0  0  0  0  0  0  0  0
  -36.0395    3.6523  -44.3558 N   0  0  0  0  0  0  0  0  0  0  0  0
  -34.6386    3.7110  -43.9194 C   0  0  0  0  0  0  0  0  0  0  0  0
  -34.3113    5.1269  -43.4397 C   0  0  0  0  0  0  0  0  0  0  0  0
  -36.3357    2.4105  -44.9223 C   0  0  0  0  0  0  0  0  0  0  0  0
  -35.5836    1.9348  -45.9890 C   0  0  0  0  0  0  0  0  0  0  0  0
  -35.8794    0.7067  -46.5471 C   0  0  0  0  0  0  0  0  0  0  0  0
  -36.9266   -0.0468  -46.0490 C   0  0  0  0  0  0  0  0  0  0  0  0
  -37.6737    0.4213  -44.9836 C   0  0  0  0  0  0  0  0  0  0  0  0
  -37.3832    1.6486  -44.4207 C   0  0  0  0  0  0  0  0  0  0  0  0
  -33.2487    8.6089  -40.7684 X   0  0  0  0  0  0  0  0  0  0  0  0
  1  2  1  0  0  0  0
  1 15  1  0  0  0  0
  2  3  1  0  0  0  0
  3  4  1  0  0  0  0
  3  8  1  0  0  0  0
  4  5  1  0  0  0  0
  5  6  1  0  0  0  0
  6  7  1  0  0  0  0
  6  9  1  0  0  0  0
  7  8  1  0  0  0  0
  9 10  2  0  0  0  0
  9 14  1  0  0  0  0
 10 11  1  0  0  0  0
 11 12  2  0  0  0  0
 12 13  1  0  0  0  0
 13 14  2  0  0  0  0
M  END
> <Index>
11967

> <PropertyFieldDistance>
nan

$$$$
9457234
BBcorina  12272117083D 1   1.00000     0.00000 
CORINA 4.3.0 0026  30.10.2019
 11 11  0  0  0  0  0  0  0  0999 V2000
  -39.0146    5.4224  -41.9078 C   0  0  0  0  0  0  0  0  0  0  0  0
  -37.6835    6.1407  -42.1391 C   0  0  0  0  0  0  0  0  0  0  0  0
  -37.2682    6.8693  -40.8595 C   0  0  0  0  0  0  0  0  0  0  0  0
  -37.8412    7.1538  -43.2746 C   0  0  0  0  0  0  0  0  0  0  0  0
  -36.6101    5.1169  -42.5144 C   0  0  0  0  0  0  0  0  0  0  0  0
  -37.0250    4.3873  -43.7948 C   0  0  0  0  0  0  0  0  0  0  0  0
  -35.9555    3.4605  -44.1931 N   0  0  0  0  0  0  0  0  0  0  0  0
  -34.6941    4.1836  -44.4110 C   0  0  0  0  0  0  0  0  0  0  0  0
  -34.3026    4.9152  -43.1244 C   0  0  0  0  0  0  0  0  0  0  0  0
  -35.3668    5.7881  -42.7357 O   0  0  0  0  0  0  0  0  0  0  0  0
  -36.4010    2.5722  -45.5846 X   0  0  0  0  0  0  0  0  0  0  0  0
  1  2  1  0  0  0  0
  2  3  1  0  0  0  0
  2  4  1  0  0  0  0
  2  5  1  0  0  0  0
  5  6  1  0  0  0  0
  5 10  1  0  0  0  0
  6  7  1  0  0  0  0
  7  8  1  0  0  0  0
  7 11  1  0  0  0  0
  8  9  1  0  0  0  0
  9 10  1  0  0  0  0
M  END
> <Index>
11969

> <PropertyFieldDistance>
nan

$$$$
9478298
BBcorina  12272117083D 1   1.00000     0.00000 
CORINA 4.3.0 0026  30.10.2019
 11 11  0  0  0  0  0  0  0  0999 V2000
  -37.7718    2.9750  -43.1443 C   0  0  0  0  0  0  0  0  0  0  0  0
  -37.0792    4.2273  -43.6857 C   0  0  0  0  0  0  0  0  0  0  0  0
  -36.4203    5.0032  -42.5302 C   0  0  0  0  0  0  0  0  0  0  0  0
  -34.9087    5.0034  -42.8542 C   0  0  0  0  0  0  0  0  0  0  0  0
  -34.7583    3.7907  -43.8067 C   0  0  0  0  0  0  0  0  0  0  0  0
  -35.9999    3.8419  -44.6205 N   0  0  0  0  0  0  0  0  0  0  0  0
  -36.9530    6.4367  -42.4813 C   0  0  0  0  0  0  0  0  0  0  0  0
  -38.3379    6.4130  -42.2843 F   0  0  0  0  0  0  0  0  0  0  0  0
  -36.3436    7.1249  -41.4267 F   0  0  0  0  0  0  0  0  0  0  0  0
  -36.6647    7.0827  -43.6882 F   0  0  0  0  0  0  0  0  0  0  0  0
  -36.3245    2.3246  -45.3392 X   0  0  0  0  0  0  0  0  0  0  0  0
  1  2  1  0  0  0  0
  2  3  1  0  0  0  0
  2  6  1  0  0  0  0
  3  4  1  0  0  0  0
  3  7  1  0  0  0  0
  4  5  1  0  0  0  0
  5  6  1  0  0  0  0
  6 11  1  0  0  0  0
  7  8  1  0  0  0  0
  7  9  1  0  0  0  0
  7 10  1  0  0  0  0
M  END
> <Index>
11978

> <PropertyFieldDistance>
nan

$$$$
9576328
BBcorina  12272117083D 1   1.00000     0.00000 
CORINA 4.3.0 0026  30.10.2019
 13 13  0  0  0  0  0  0  0  0999 V2000
  -32.5889    5.5666  -39.1943 C   0  0  0  0  0  0  0  0  0  0  0  0
  -34.0244    5.3090  -39.0554 N   0  0  0  0  0  0  0  0  0  0  0  0
  -35.1220    6.3835  -39.6743 S   0  0  0  0  0  0  0  0  0  0  0  0
  -34.7173    7.6712  -39.2304 O   0  0  0  0  0  0  0  0  0  0  0  0
  -36.4082    5.8395  -39.4113 O   0  0  0  0  0  0  0  0  0  0  0  0
  -34.9395    6.3776  -41.3202 N   0  0  0  0  0  0  0  0  0  0  0  0
  -35.2462    5.1675  -42.0868 C   0  0  0  0  0  0  0  0  0  0  0  0
  -36.6793    5.2476  -42.6203 C   0  0  0  0  0  0  0  0  0  0  0  0
  -36.9723    4.0086  -43.4694 C   0  0  0  0  0  0  0  0  0  0  0  0
  -36.0191    3.9414  -44.5845 N   0  0  0  0  0  0  0  0  0  0  0  0
  -34.6396    3.8164  -44.0971 C   0  0  0  0  0  0  0  0  0  0  0  0
  -34.2769    5.0496  -43.2664 C   0  0  0  0  0  0  0  0  0  0  0  0
  -36.4111    2.6624  -45.6495 X   0  0  0  0  0  0  0  0  0  0  0  0
  1  2  1  0  0  0  0
  2  3  1  0  0  0  0
  3  4  2  0  0  0  0
  3  5  2  0  0  0  0
  3  6  1  0  0  0  0
  6  7  1  0  0  0  0
  7  8  1  0  0  0  0
  7 12  1  0  0  0  0
  8  9  1  0  0  0  0
  9 10  1  0  0  0  0
 10 11  1  0  0  0  0
 10 13  1  0  0  0  0
 11 12  1  0  0  0  0
M  END
> <Index>
11998

> <PropertyFieldDistance>
nan

$$$$
11402522
BBcorina  12272117083D 1   1.00000     0.00000 
CORINA 4.3.0 0026  30.10.2019
  7  7  0  0  0  0  0  0  0  0999 V2000
  -36.6235    1.4263  -43.9921 C   0  0  0  0  0  0  0  0  0  0  0  0
  -36.0373    2.6049  -43.3400 N   0  0  0  0  0  0  0  0  0  0  0  0
  -37.0616    3.3997  -42.6818 N   0  0  0  0  0  0  0  0  0  0  0  0
  -35.2787    3.4159  -44.3017 C   0  0  0  0  0  0  0  0  0  0  0  0
  -34.5356    4.6398  -43.7626 C   0  0  0  0  0  0  0  0  0  0  0  0
  -33.7527    3.3975  -44.1927 C   0  0  0  0  0  0  0  0  0  0  0  0
  -36.7113    3.5956  -41.0196 X   0  0  0  0  0  0  0  0  0  0  0  0
  1  2  1  0  0  0  0
  2  3  1  0  0  0  0
  2  4  1  0  0  0  0
  3  7  1  0  0  0  0
  4  5  1  0  0  0  0
  4  6  1  0  0  0  0
  5  6  1  0  0  0  0
M  END
> <Index>
12012

> <PropertyFieldDistance>
nan

$$$$
9576348
BBcorina  12272117083D 1   1.00000     0.00000 
CORINA 4.3.0 0026  30.10.2019
 10 10  0  0  0  0  0  0  0  0999 V2000
  -35.8851    0.2169  -45.0572 N   0  0  0  0  0  0  0  0  0  0  0  0
  -35.5859    1.6340  -45.3031 C   0  0  0  0  0  0  0  0  0  0  0  0
  -36.4552    2.5040  -44.3928 C   0  0  0  0  0  0  0  0  0  0  0  0
  -36.2538    3.9195  -44.7303 N   0  0  0  0  0  0  0  0  0  0  0  0
  -37.0104    4.7924  -43.8175 C   0  0  0  0  0  0  0  0  0  0  0  0
  -36.6192    4.4450  -42.3787 C   0  0  0  0  0  0  0  0  0  0  0  0
  -35.1218    4.4009  -42.2571 C   0  0  0  0  0  0  0  0  0  0  0  0
  -34.3330    4.3193  -43.2850 C   0  0  0  0  0  0  0  0  0  0  0  0
  -34.8280    4.2696  -44.7016 C   0  0  0  0  0  0  0  0  0  0  0  0
  -34.9328   -0.7926  -46.0563 X   0  0  0  0  0  0  0  0  0  0  0  0
  1  2  1  0  0  0  0
  1 10  1  0  0  0  0
  2  3  1  0  0  0  0
  3  4  1  0  0  0  0
  4  5  1  0  0  0  0
  4  9  1  0  0  0  0
  5  6  1  0  0  0  0
  6  7  1  0  0  0  0
  7  8  2  0  0  0  0
  8  9  1  0  0  0  0
M  END
> <Index>
12015

> <PropertyFieldDistance>
nan

$$$$
12105222
BBcorina  12272117083D 1   1.00000     0.00000 
CORINA 4.3.0 0026  30.10.2019
 11 12  0  0  0  0  0  0  0  0999 V2000
  -37.3035    5.4593  -41.7316 N   0  0  0  0  0  0  0  0  0  0  0  0
  -36.7477    4.8854  -42.9643 C   0  0  0  0  0  0  0  0  0  0  0  0
  -36.7268    3.3471  -42.9728 C   0  0  0  0  0  0  0  0  0  0  0  0
  -35.3476    3.4506  -43.6366 C   0  0  0  0  0  0  0  0  0  0  0  0
  -35.2103    4.8297  -42.9793 C   0  0  0  0  0  0  0  0  0  0  0  0
  -34.3433    2.4240  -43.1169 C   0  0  0  0  0  0  0  0  0  0  0  0
  -34.6847    1.0473  -43.6944 C   0  0  0  0  0  0  0  0  0  0  0  0
  -34.6691    1.1184  -45.2225 C   0  0  0  0  0  0  0  0  0  0  0  0
  -35.7307    2.1091  -45.7035 C   0  0  0  0  0  0  0  0  0  0  0  0
  -35.4082    3.5046  -45.1616 C   0  0  0  0  0  0  0  0  0  0  0  0
  -36.3928    4.9781  -40.3666 X   0  0  0  0  0  0  0  0  0  0  0  0
  1  2  1  0  0  0  0
  1 11  1  0  0  0  0
  2  3  1  0  0  0  0
  2  5  1  0  0  0  0
  3  4  1  0  0  0  0
  4  5  1  0  0  0  0
  4  6  1  0  0  0  0
  4 10  1  0  0  0  0
  6  7  1  0  0  0  0
  7  8  1  0  0  0  0
  8  9  1  0  0  0  0
  9 10  1  0  0  0  0
M  END
> <Index>
12017

> <PropertyFieldDistance>
nan

$$$$
10429110
BBcorina  12272117083D 1   1.00000     0.00000 
CORINA 4.3.0 0026  30.10.2019
 12 12  0  0  0  0  0  0  0  0999 V2000
  -37.7166    0.6683  -48.1052 F   0  0  0  0  0  0  0  0  0  0  0  0
  -36.7988   -0.1978  -47.5012 C   0  0  0  0  0  0  0  0  0  0  0  0
  -37.3174   -1.4967  -47.5320 F   0  0  0  0  0  0  0  0  0  0  0  0
  -35.4811   -0.1670  -48.3023 C   0  0  0  0  0  0  0  0  0  0  0  0
  -35.1982    1.2557  -48.7023 C   0  0  0  0  0  0  0  0  0  0  0  0
  -34.2725    1.9743  -47.7020 C   0  0  0  0  0  0  0  0  0  0  0  0
  -34.6221    1.6643  -46.2346 C   0  0  0  0  0  0  0  0  0  0  0  0
  -36.1059    1.6538  -45.9846 C   0  0  0  0  0  0  0  0  0  0  0  0
  -36.3933    2.1751  -44.5753 C   0  0  0  0  0  0  0  0  0  0  0  0
  -36.0173    3.5927  -44.4913 N   0  0  0  0  0  0  0  0  0  0  0  0
  -36.6144    0.2034  -46.1143 C   0  0  0  0  0  0  0  0  0  0  0  0
  -36.3230    4.2163  -42.9287 X   0  0  0  0  0  0  0  0  0  0  0  0
  1  2  1  0  0  0  0
  2  3  1  0  0  0  0
  2  4  1  0  0  0  0
  2 11  1  0  0  0  0
  4  5  1  0  0  0  0
  5  6  1  0  0  0  0
  6  7  1  0  0  0  0
  7  8  1  0  0  0  0
  8  9  1  0  0  0  0
  8 11  1  0  0  0  0
  9 10  1  0  0  0  0
 10 12  1  0  0  0  0
M  END
> <Index>
12022

> <PropertyFieldDistance>
nan

$$$$
9609040
BBcorina  12272117083D 1   1.00000     0.00000 
CORINA 4.3.0 0026  30.10.2019
 15 16  0  0  0  0  0  0  0  0999 V2000
  -33.6216    6.9969  -41.2894 C   0  0  0  0  0  0  0  0  0  0  0  0
  -34.9719    6.8756  -41.8548 N   0  0  0  0  0  0  0  0  0  0  0  0
  -35.2421    5.4960  -42.2813 C   0  0  0  0  0  0  0  0  0  0  0  0
  -36.6958    5.3801  -42.7481 C   0  0  0  0  0  0  0  0  0  0  0  0
  -36.9540    3.9569  -43.2478 C   0  0  0  0  0  0  0  0  0  0  0  0
  -36.0395    3.6523  -44.3558 N   0  0  0  0  0  0  0  0  0  0  0  0
  -34.6386    3.7110  -43.9194 C   0  0  0  0  0  0  0  0  0  0  0  0
  -34.3113    5.1269  -43.4397 C   0  0  0  0  0  0  0  0  0  0  0  0
  -36.3357    2.4105  -44.9223 C   0  0  0  0  0  0  0  0  0  0  0  0
  -35.5836    1.9348  -45.9890 C   0  0  0  0  0  0  0  0  0  0  0  0
  -35.8794    0.7067  -46.5471 C   0  0  0  0  0  0  0  0  0  0  0  0
  -36.9266   -0.0468  -46.0490 C   0  0  0  0  0  0  0  0  0  0  0  0
  -37.6737    0.4213  -44.9836 C   0  0  0  0  0  0  0  0  0  0  0  0
  -37.3832    1.6486  -44.4207 C   0  0  0  0  0  0  0  0  0  0  0  0
  -36.1530    7.4155  -40.7423 X   0  0  0  0  0  0  0  0  0  0  0  0
  1  2  1  0  0  0  0
  2  3  1  0  0  0  0
  2 15  1  0  0  0  0
  3  4  1  0  0  0  0
  3  8  1  0  0  0  0
  4  5  1  0  0  0  0
  5  6  1  0  0  0  0
  6  7  1  0  0  0  0
  6  9  1  0  0  0  0
  7  8  1  0  0  0  0
  9 10  2  0  0  0  0
  9 14  1  0  0  0  0
 10 11  1  0  0  0  0
 11 12  2  0  0  0  0
 12 13  1  0  0  0  0
 13 14  2  0  0  0  0
M  END
> <Index>
12034

> <PropertyFieldDistance>
nan

$$$$
9609484
BBcorina  12272117083D 1   1.00000     0.00000 
CORINA 4.3.0 0026  30.10.2019
 11 11  0  0  0  0  0  0  0  0999 V2000
  -31.8798    4.7860  -43.9197 C   0  0  0  0  0  0  0  0  0  0  0  0
  -32.8471    4.9088  -42.7406 C   0  0  0  0  0  0  0  0  0  0  0  0
  -32.7463    3.6577  -41.8659 C   0  0  0  0  0  0  0  0  0  0  0  0
  -32.4853    6.1421  -41.9105 C   0  0  0  0  0  0  0  0  0  0  0  0
  -34.2769    5.0496  -43.2665 C   0  0  0  0  0  0  0  0  0  0  0  0
  -35.2462    5.1676  -42.0870 C   0  0  0  0  0  0  0  0  0  0  0  0
  -36.6793    5.2476  -42.6202 C   0  0  0  0  0  0  0  0  0  0  0  0
  -36.9724    4.0086  -43.4695 C   0  0  0  0  0  0  0  0  0  0  0  0
  -36.0191    3.9414  -44.5845 N   0  0  0  0  0  0  0  0  0  0  0  0
  -34.6396    3.8164  -44.0970 C   0  0  0  0  0  0  0  0  0  0  0  0
  -36.4111    2.6621  -45.6494 X   0  0  0  0  0  0  0  0  0  0  0  0
  1  2  1  0  0  0  0
  2  3  1  0  0  0  0
  2  4  1  0  0  0  0
  2  5  1  0  0  0  0
  5  6  1  0  0  0  0
  5 10  1  0  0  0  0
  6  7  1  0  0  0  0
  7  8  1  0  0  0  0
  8  9  1  0  0  0  0
  9 10  1  0  0  0  0
  9 11  1  0  0  0  0
M  END
> <Index>
12037

> <PropertyFieldDistance>
nan

$$$$
9651134
BBcorina  12272117083D 1   1.00000     0.00000 
CORINA 4.3.0 0026  30.10.2019
  9  9  0  0  0  0  0  0  0  0999 V2000
  -37.5205    6.2759  -42.1847 C   0  0  0  0  0  0  0  0  0  0  0  0
  -36.6646    5.0346  -42.4444 C   0  0  0  0  0  0  0  0  0  0  0  0
  -36.9756    4.4842  -43.8385 C   0  0  0  0  0  0  0  0  0  0  0  0
  -35.9671    3.4649  -44.1733 N   0  0  0  0  0  0  0  0  0  0  0  0
  -34.6557    4.0951  -44.3722 C   0  0  0  0  0  0  0  0  0  0  0  0
  -34.3244    4.9849  -43.2092 C   0  0  0  0  0  0  0  0  0  0  0  0
  -35.2094    5.4005  -42.3552 C   0  0  0  0  0  0  0  0  0  0  0  0
  -32.8915    5.4119  -43.0201 C   0  0  0  0  0  0  0  0  0  0  0  0
  -35.8902    2.2585  -42.9639 X   0  0  0  0  0  0  0  0  0  0  0  0
  1  2  1  0  0  0  0
  2  3  1  0  0  0  0
  2  7  1  0  0  0  0
  3  4  1  0  0  0  0
  4  5  1  0  0  0  0
  4  9  1  0  0  0  0
  5  6  1  0  0  0  0
  6  7  2  0  0  0  0
  6  8  1  0  0  0  0
M  END
> <Index>
12057

> <PropertyFieldDistance>
nan

$$$$
15065852
BBcorina  12272117083D 1   1.00000     0.00000 
CORINA 4.3.0 0026  30.10.2019
 13 13  0  0  0  0  0  0  0  0999 V2000
  -33.7152    7.2911  -41.6140 C   0  0  0  0  0  0  0  0  0  0  0  0
  -34.9628    6.5331  -41.4498 N   0  0  0  0  0  0  0  0  0  0  0  0
  -36.0402    7.3955  -40.9462 C   0  0  0  0  0  0  0  0  0  0  0  0
  -35.3534    5.8832  -42.7080 C   0  0  0  0  0  0  0  0  0  0  0  0
  -36.6586    5.1099  -42.5008 C   0  0  0  0  0  0  0  0  0  0  0  0
  -37.0290    4.3869  -43.7977 C   0  0  0  0  0  0  0  0  0  0  0  0
  -35.9480    3.4664  -44.1723 N   0  0  0  0  0  0  0  0  0  0  0  0
  -34.6958    4.1916  -44.4226 C   0  0  0  0  0  0  0  0  0  0  0  0
  -34.2559    4.9088  -43.1443 C   0  0  0  0  0  0  0  0  0  0  0  0
  -35.5516    6.9290  -43.7748 C   0  0  0  0  0  0  0  0  0  0  0  0
  -36.6725    7.2591  -44.0996 O   0  0  0  0  0  0  0  0  0  0  0  0
  -34.4832    7.4976  -44.3678 N   0  0  0  0  0  0  0  0  0  0  0  0
  -36.3899    2.5210  -45.5270 X   0  0  0  0  0  0  0  0  0  0  0  0
  1  2  1  0  0  0  0
  2  3  1  0  0  0  0
  2  4  1  0  0  0  0
  4  5  1  0  0  0  0
  4  9  1  0  0  0  0
  4 10  1  0  0  0  0
  5  6  1  0  0  0  0
  6  7  1  0  0  0  0
  7  8  1  0  0  0  0
  7 13  1  0  0  0  0
  8  9  1  0  0  0  0
 10 11  2  0  0  0  0
 10 12  1  0  0  0  0
M  END
> <Index>
12058

> <PropertyFieldDistance>
nan

$$$$
9651166
BBcorina  12272117083D 1   1.00000     0.00000 
CORINA 4.3.0 0026  30.10.2019
  9  9  0  0  0  0  0  0  0  0999 V2000
  -35.1142    6.6811  -41.4601 C   0  0  0  0  0  0  0  0  0  0  0  0
  -35.4037    5.6085  -42.4783 C   0  0  0  0  0  0  0  0  0  0  0  0
  -36.6176    5.1544  -42.5744 C   0  0  0  0  0  0  0  0  0  0  0  0
  -37.9412    5.8803  -41.4356 Br  0  0  0  0  0  0  0  0  0  0  0  0
  -37.0214    4.0823  -43.5450 C   0  0  0  0  0  0  0  0  0  0  0  0
  -36.0031    3.9347  -44.5926 N   0  0  0  0  0  0  0  0  0  0  0  0
  -34.6695    3.7816  -43.9878 C   0  0  0  0  0  0  0  0  0  0  0  0
  -34.2758    5.1105  -43.3379 C   0  0  0  0  0  0  0  0  0  0  0  0
  -36.3660    2.6155  -45.6183 X   0  0  0  0  0  0  0  0  0  0  0  0
  1  2  1  0  0  0  0
  2  3  2  0  0  0  0
  2  8  1  0  0  0  0
  3  4  1  0  0  0  0
  3  5  1  0  0  0  0
  5  6  1  0  0  0  0
  6  7  1  0  0  0  0
  6  9  1  0  0  0  0
  7  8  1  0  0  0  0
M  END
> <Index>
12059

> <PropertyFieldDistance>
nan

$$$$
10688134
BBcorina  12272117083D 1   1.00000     0.00000 
CORINA 4.3.0 0026  30.10.2019
  9 10  0  0  0  0  0  0  0  0999 V2000
  -35.9439    3.5389  -44.3825 N   0  0  0  0  0  0  0  0  0  0  0  0
  -36.9814    4.0038  -43.4253 C   0  0  0  0  0  0  0  0  0  0  0  0
  -36.4571    5.3862  -42.9219 C   0  0  0  0  0  0  0  0  0  0  0  0
  -35.7616    5.8956  -44.2372 C   0  0  0  0  0  0  0  0  0  0  0  0
  -34.8839    4.5978  -44.3677 C   0  0  0  0  0  0  0  0  0  0  0  0
  -34.3210    4.5369  -42.9403 C   0  0  0  0  0  0  0  0  0  0  0  0
  -33.2337    4.1209  -42.6166 O   0  0  0  0  0  0  0  0  0  0  0  0
  -35.2664    5.0352  -42.1131 O   0  0  0  0  0  0  0  0  0  0  0  0
  -35.3048    2.0254  -43.9084 X   0  0  0  0  0  0  0  0  0  0  0  0
  1  2  1  0  0  0  0
  1  5  1  0  0  0  0
  1  9  1  0  0  0  0
  2  3  1  0  0  0  0
  3  4  1  0  0  0  0
  3  8  1  0  0  0  0
  4  5  1  0  0  0  0
  5  6  1  0  0  0  0
  6  7  2  0  0  0  0
  6  8  1  0  0  0  0
M  END
> <Index>
12063

> <PropertyFieldDistance>
nan

$$$$
9704030
BBcorina  12272117083D 1   1.00000     0.00000 
CORINA 4.3.0 0026  30.10.2019
 13 14  0  0  0  0  0  0  0  0999 V2000
  -35.5415    6.8747  -43.7199 O   0  0  0  0  0  0  0  0  0  0  0  0
  -35.3535    5.8830  -42.7083 C   0  0  0  0  0  0  0  0  0  0  0  0
  -36.6588    5.1098  -42.5008 C   0  0  0  0  0  0  0  0  0  0  0  0
  -37.0292    4.3868  -43.7978 C   0  0  0  0  0  0  0  0  0  0  0  0
  -35.9483    3.4661  -44.1723 N   0  0  0  0  0  0  0  0  0  0  0  0
  -34.6962    4.1913  -44.4229 C   0  0  0  0  0  0  0  0  0  0  0  0
  -34.2549    4.9096  -43.1439 C   0  0  0  0  0  0  0  0  0  0  0  0
  -34.9527    6.5500  -41.4176 C   0  0  0  0  0  0  0  0  0  0  0  0
  -35.5464    6.4264  -40.2557 N   0  0  0  0  0  0  0  0  0  0  0  0
  -34.9069    7.1505  -39.4031 N   0  0  0  0  0  0  0  0  0  0  0  0
  -33.9208    7.7328  -39.9912 N   0  0  0  0  0  0  0  0  0  0  0  0
  -33.9121    7.3836  -41.2332 N   0  0  0  0  0  0  0  0  0  0  0  0
  -36.3903    2.5207  -45.5268 X   0  0  0  0  0  0  0  0  0  0  0  0
  1  2  1  0  0  0  0
  2  3  1  0  0  0  0
  2  7  1  0  0  0  0
  2  8  1  0  0  0  0
  3  4  1  0  0  0  0
  4  5  1  0  0  0  0
  5  6  1  0  0  0  0
  5 13  1  0  0  0  0
  6  7  1  0  0  0  0
  8  9  2  0  0  0  0
  8 12  1  0  0  0  0
  9 10  1  0  0  0  0
 10 11  2  0  0  0  0
 11 12  1  0  0  0  0
M  END
> <Index>
12064

> <PropertyFieldDistance>
nan

$$$$
9650390
BBcorina  12272117083D 1   1.00000     0.00000 
CORINA 4.3.0 0026  30.10.2019
  8  9  0  0  0  0  0  0  0  0999 V2000
  -36.9250    4.4937  -44.9206 N   0  0  0  0  0  0  0  0  0  0  0  0
  -37.2418    3.3433  -44.0638 C   0  0  0  0  0  0  0  0  0  0  0  0
  -36.9802    3.4871  -42.5624 C   0  0  0  0  0  0  0  0  0  0  0  0
  -36.0710    2.6010  -43.4163 C   0  0  0  0  0  0  0  0  0  0  0  0
  -34.6599    3.1134  -43.7113 C   0  0  0  0  0  0  0  0  0  0  0  0
  -33.4845    2.2985  -43.1677 C   0  0  0  0  0  0  0  0  0  0  0  0
  -33.7941    2.2888  -44.6660 C   0  0  0  0  0  0  0  0  0  0  0  0
  -36.2467    5.7700  -44.0068 X   0  0  0  0  0  0  0  0  0  0  0  0
  1  2  1  0  0  0  0
  1  8  1  0  0  0  0
  2  3  1  0  0  0  0
  2  4  1  0  0  0  0
  3  4  1  0  0  0  0
  4  5  1  0  0  0  0
  5  6  1  0  0  0  0
  5  7  1  0  0  0  0
  6  7  1  0  0  0  0
M  END
> <Index>
12068

> <PropertyFieldDistance>
nan

$$$$
9707104
BBcorina  12272117083D 1   1.00000     0.00000 
CORINA 4.3.0 0026  30.10.2019
  7  7  0  0  0  0  0  0  0  0999 V2000
  -36.6835    5.3193  -44.0245 C   0  0  0  0  0  0  0  0  0  0  0  0
  -36.7206    3.7908  -44.0812 C   0  0  0  0  0  0  0  0  0  0  0  0
  -35.4010    3.2286  -43.5488 C   0  0  0  0  0  0  0  0  0  0  0  0
  -34.5250    2.4380  -44.5240 C   0  0  0  0  0  0  0  0  0  0  0  0
  -35.2840    1.7091  -43.4133 C   0  0  0  0  0  0  0  0  0  0  0  0
  -34.5001    1.1870  -42.2859 N   0  0  0  0  0  0  0  0  0  0  0  0
  -32.9122    1.8215  -42.2977 X   0  0  0  0  0  0  0  0  0  0  0  0
  1  2  1  0  0  0  0
  2  3  1  0  0  0  0
  3  4  1  0  0  0  0
  3  5  1  0  0  0  0
  4  5  1  0  0  0  0
  5  6  1  0  0  0  0
  6  7  1  0  0  0  0
M  END
> <Index>
12078

> <PropertyFieldDistance>
nan

$$$$
12210358
BBcorina  12272117083D 1   1.00000     0.00000 
CORINA 4.3.0 0026  30.10.2019
 10 11  0  0  0  0  0  0  0  0999 V2000
  -36.0173    3.5927  -44.4913 N   0  0  0  0  0  0  0  0  0  0  0  0
  -36.3933    2.1751  -44.5753 C   0  0  0  0  0  0  0  0  0  0  0  0
  -36.1059    1.6538  -45.9847 C   0  0  0  0  0  0  0  0  0  0  0  0
  -37.0164    2.3653  -46.9922 C   0  0  0  0  0  0  0  0  0  0  0  0
  -36.4869    2.1008  -48.4006 C   0  0  0  0  0  0  0  0  0  0  0  0
  -36.3513    0.6069  -48.6507 C   0  0  0  0  0  0  0  0  0  0  0  0
  -37.5159   -0.3229  -48.3357 C   0  0  0  0  0  0  0  0  0  0  0  0
  -36.2419   -0.3541  -47.4773 C   0  0  0  0  0  0  0  0  0  0  0  0
  -36.3871    0.1523  -46.0439 C   0  0  0  0  0  0  0  0  0  0  0  0
  -36.3229    4.2163  -42.9287 X   0  0  0  0  0  0  0  0  0  0  0  0
  1  2  1  0  0  0  0
  1 10  1  0  0  0  0
  2  3  1  0  0  0  0
  3  4  1  0  0  0  0
  3  9  1  0  0  0  0
  4  5  1  0  0  0  0
  5  6  1  0  0  0  0
  6  7  1  0  0  0  0
  6  8  1  0  0  0  0
  7  8  1  0  0  0  0
  8  9  1  0  0  0  0
M  END
> <Index>
12093

> <PropertyFieldDistance>
nan

$$$$
9704036
BBcorina  12272117083D 1   1.00000     0.00000 
CORINA 4.3.0 0026  30.10.2019
 14 15  0  0  0  0  0  0  0  0999 V2000
  -37.4288   -0.5669  -47.6113 N   0  0  0  0  0  0  0  0  0  0  0  0
  -37.0569    0.4137  -46.6837 C   0  0  0  0  0  0  0  0  0  0  0  0
  -35.7873    0.3918  -46.1218 C   0  0  0  0  0  0  0  0  0  0  0  0
  -35.4203    1.3593  -45.2074 C   0  0  0  0  0  0  0  0  0  0  0  0
  -36.3209    2.3538  -44.8497 C   0  0  0  0  0  0  0  0  0  0  0  0
  -37.5902    2.3762  -45.4123 C   0  0  0  0  0  0  0  0  0  0  0  0
  -37.9557    1.4113  -46.3301 C   0  0  0  0  0  0  0  0  0  0  0  0
  -35.9490    3.3344  -43.9222 N   0  0  0  0  0  0  0  0  0  0  0  0
  -37.0461    4.2825  -43.6902 C   0  0  0  0  0  0  0  0  0  0  0  0
  -36.6583    5.2492  -42.5690 C   0  0  0  0  0  0  0  0  0  0  0  0
  -35.3851    6.0007  -42.9673 C   0  0  0  0  0  0  0  0  0  0  0  0
  -34.2717    4.9884  -43.2503 C   0  0  0  0  0  0  0  0  0  0  0  0
  -34.7287    4.0293  -44.3518 C   0  0  0  0  0  0  0  0  0  0  0  0
  -38.9923   -0.5401  -48.3033 X   0  0  0  0  0  0  0  0  0  0  0  0
  1  2  1  0  0  0  0
  1 14  1  0  0  0  0
  2  3  2  0  0  0  0
  2  7  1  0  0  0  0
  3  4  1  0  0  0  0
  4  5  2  0  0  0  0
  5  6  1  0  0  0  0
  5  8  1  0  0  0  0
  6  7  2  0  0  0  0
  8  9  1  0  0  0  0
  8 13  1  0  0  0  0
  9 10  1  0  0  0  0
 10 11  1  0  0  0  0
 11 12  1  0  0  0  0
 12 13  1  0  0  0  0
M  END
> <Index>
12094

> <PropertyFieldDistance>
nan

$$$$
9736402
BBcorina  12272117083D 1   1.00000     0.00000 
CORINA 4.3.0 0026  30.10.2019
 13 14  0  0  0  0  0  0  0  0999 V2000
  -35.2398    5.8176  -42.4317 N   0  0  0  0  0  0  0  0  0  0  0  0
  -36.5912    5.2817  -42.1506 C   0  0  0  0  0  0  0  0  0  0  0  0
  -37.3752    4.9793  -43.4021 C   0  0  0  0  0  0  0  0  0  0  0  0
  -37.1515    3.5001  -43.7889 C   0  0  0  0  0  0  0  0  0  0  0  0
  -35.8928    3.3066  -44.3726 N   0  0  0  0  0  0  0  0  0  0  0  0
  -35.7653    1.9454  -44.9098 C   0  0  0  0  0  0  0  0  0  0  0  0
  -36.5455    1.8398  -46.2217 C   0  0  0  0  0  0  0  0  0  0  0  0
  -36.3605    0.4936  -46.9419 C   0  0  0  0  0  0  0  0  0  0  0  0
  -37.8606    0.5524  -47.2752 C   0  0  0  0  0  0  0  0  0  0  0  0
  -38.0198    1.4459  -46.0317 C   0  0  0  0  0  0  0  0  0  0  0  0
  -34.7517    3.6385  -43.4956 C   0  0  0  0  0  0  0  0  0  0  0  0
  -34.5453    5.1314  -43.5405 C   0  0  0  0  0  0  0  0  0  0  0  0
  -34.2778    5.8262  -41.0179 X   0  0  0  0  0  0  0  0  0  0  0  0
  1  2  1  0  0  0  0
  1 12  1  0  0  0  0
  1 13  1  0  0  0  0
  2  3  1  0  0  0  0
  3  4  1  0  0  0  0
  4  5  1  0  0  0  0
  5  6  1  0  0  0  0
  5 11  1  0  0  0  0
  6  7  1  0  0  0  0
  7  8  1  0  0  0  0
  7 10  1  0  0  0  0
  8  9  1  0  0  0  0
  9 10  1  0  0  0  0
 11 12  1  0  0  0  0
M  END
> <Index>
12095

> <PropertyFieldDistance>
nan

$$$$
9748134
BBcorina  12272117083D 1   1.00000     0.00000 
CORINA 4.3.0 0026  30.10.2019
 12 12  0  0  0  0  0  0  0  0999 V2000
  -35.2213    5.5540  -42.5557 N   0  0  0  0  0  0  0  0  0  0  0  0
  -36.5301    4.9379  -42.3000 C   0  0  0  0  0  0  0  0  0  0  0  0
  -37.1582    4.5099  -43.6306 C   0  0  0  0  0  0  0  0  0  0  0  0
  -36.1985    3.6564  -44.3471 N   0  0  0  0  0  0  0  0  0  0  0  0
  -34.8224    4.1471  -44.5169 C   0  0  0  0  0  0  0  0  0  0  0  0
  -34.2878    4.5919  -43.1565 C   0  0  0  0  0  0  0  0  0  0  0  0
  -36.5686    2.4539  -44.8304 C   0  0  0  0  0  0  0  0  0  0  0  0
  -37.7063    2.0628  -44.6769 O   0  0  0  0  0  0  0  0  0  0  0  0
  -35.5689    1.5955  -45.5616 C   0  0  0  0  0  0  0  0  0  0  0  0
  -36.2304    0.3129  -45.9956 C   0  0  0  0  0  0  0  0  0  0  0  0
  -36.2044   -0.0437  -47.2559 C   0  0  0  0  0  0  0  0  0  0  0  0
  -34.5707    6.2272  -41.1248 X   0  0  0  0  0  0  0  0  0  0  0  0
  1  2  1  0  0  0  0
  1  6  1  0  0  0  0
  1 12  1  0  0  0  0
  2  3  1  0  0  0  0
  3  4  1  0  0  0  0
  4  5  1  0  0  0  0
  4  7  1  0  0  0  0
  5  6  1  0  0  0  0
  7  8  2  0  0  0  0
  7  9  1  0  0  0  0
  9 10  1  0  0  0  0
 10 11  2  0  0  0  0
M  END
> <Index>
12115

> <PropertyFieldDistance>
nan

$$$$
9748136
BBcorina  12272117083D 1   1.00000     0.00000 
CORINA 4.3.0 0026  30.10.2019
 12 12  0  0  0  0  0  0  0  0999 V2000
  -35.1386   -0.0792  -47.3225 O   0  0  0  0  0  0  0  0  0  0  0  0
  -36.1826    0.6453  -46.6686 C   0  0  0  0  0  0  0  0  0  0  0  0
  -35.5716    1.6312  -45.6709 C   0  0  0  0  0  0  0  0  0  0  0  0
  -36.6795    2.4929  -45.0620 C   0  0  0  0  0  0  0  0  0  0  0  0
  -36.1108    3.3563  -44.0184 N   0  0  0  0  0  0  0  0  0  0  0  0
  -37.0879    4.3615  -43.5758 C   0  0  0  0  0  0  0  0  0  0  0  0
  -36.4762    5.1987  -42.4494 C   0  0  0  0  0  0  0  0  0  0  0  0
  -35.2596    5.7925  -42.9104 O   0  0  0  0  0  0  0  0  0  0  0  0
  -34.2850    4.8420  -43.3486 C   0  0  0  0  0  0  0  0  0  0  0  0
  -34.8745    4.0012  -44.4841 C   0  0  0  0  0  0  0  0  0  0  0  0
  -34.8875    0.8879  -44.6044 N   0  0  0  0  0  0  0  0  0  0  0  0
  -35.9787   -0.1308  -43.7703 X   0  0  0  0  0  0  0  0  0  0  0  0
  1  2  1  0  0  0  0
  2  3  1  0  0  0  0
  3  4  1  0  0  0  0
  3 11  1  0  0  0  0
  4  5  1  0  0  0  0
  5  6  1  0  0  0  0
  5 10  1  0  0  0  0
  6  7  1  0  0  0  0
  7  8  1  0  0  0  0
  8  9  1  0  0  0  0
  9 10  1  0  0  0  0
 11 12  1  0  0  0  0
M  END
> <Index>
12117

> <PropertyFieldDistance>
nan

$$$$
15705886
BBcorina  12272117083D 1   1.00000     0.00000 
CORINA 4.3.0 0026  30.10.2019
 10 10  0  0  0  0  0  0  0  0999 V2000
  -34.4611    1.5834  -41.4963 N   0  0  0  0  0  0  0  0  0  0  0  0
  -35.2450    2.1055  -42.6236 C   0  0  0  0  0  0  0  0  0  0  0  0
  -35.8737    3.4440  -42.2312 C   0  0  0  0  0  0  0  0  0  0  0  0
  -36.6901    3.9878  -43.4054 C   0  0  0  0  0  0  0  0  0  0  0  0
  -35.7736    4.1896  -44.6137 C   0  0  0  0  0  0  0  0  0  0  0  0
  -35.1449    2.8511  -45.0062 C   0  0  0  0  0  0  0  0  0  0  0  0
  -34.3285    2.3074  -43.8320 C   0  0  0  0  0  0  0  0  0  0  0  0
  -36.5591    4.7128  -45.7434 C   0  0  0  0  0  0  0  0  0  0  0  0
  -37.1855    5.1300  -46.6443 C   0  0  0  0  0  0  0  0  0  0  0  0
  -34.4379   -0.1264  -41.5057 X   0  0  0  0  0  0  0  0  0  0  0  0
  1  2  1  0  0  0  0
  1 10  1  0  0  0  0
  2  3  1  0  0  0  0
  2  7  1  0  0  0  0
  3  4  1  0  0  0  0
  4  5  1  0  0  0  0
  5  6  1  0  0  0  0
  5  8  1  0  0  0  0
  6  7  1  0  0  0  0
  8  9  3  0  0  0  0
M  END
> <Index>
12141

> <PropertyFieldDistance>
nan

$$$$
9818024
BBcorina  12272117083D 1   1.00000     0.00000 
CORINA 4.3.0 0026  30.10.2019
 14 14  0  0  0  0  0  0  0  0999 V2000
  -34.6287   -1.8550  -48.9602 C   0  0  0  0  0  0  0  0  0  0  0  0
  -35.5904   -1.0079  -48.3280 O   0  0  0  0  0  0  0  0  0  0  0  0
  -35.0391   -0.1462  -47.3303 C   0  0  0  0  0  0  0  0  0  0  0  0
  -36.1528    0.7101  -46.7240 C   0  0  0  0  0  0  0  0  0  0  0  0
  -35.5626    1.6327  -45.6558 C   0  0  0  0  0  0  0  0  0  0  0  0
  -36.6762    2.4889  -45.0496 C   0  0  0  0  0  0  0  0  0  0  0  0
  -36.1095    3.3749  -44.0239 N   0  0  0  0  0  0  0  0  0  0  0  0
  -37.0946    4.3728  -43.5877 C   0  0  0  0  0  0  0  0  0  0  0  0
  -36.5218    5.1812  -42.4215 C   0  0  0  0  0  0  0  0  0  0  0  0
  -35.2318    5.8729  -42.8712 C   0  0  0  0  0  0  0  0  0  0  0  0
  -34.2409    4.8155  -43.3658 C   0  0  0  0  0  0  0  0  0  0  0  0
  -34.8799    4.0177  -44.5048 C   0  0  0  0  0  0  0  0  0  0  0  0
  -34.6469    6.6045  -41.7397 N   0  0  0  0  0  0  0  0  0  0  0  0
  -34.1782    5.5321  -40.4929 X   0  0  0  0  0  0  0  0  0  0  0  0
  1  2  1  0  0  0  0
  2  3  1  0  0  0  0
  3  4  1  0  0  0  0
  4  5  1  0  0  0  0
  5  6  1  0  0  0  0
  6  7  1  0  0  0  0
  7  8  1  0  0  0  0
  7 12  1  0  0  0  0
  8  9  1  0  0  0  0
  9 10  1  0  0  0  0
 10 11  1  0  0  0  0
 10 13  1  0  0  0  0
 11 12  1  0  0  0  0
 13 14  1  0  0  0  0
M  END
> <Index>
12142

> <PropertyFieldDistance>
nan

$$$$
16895864
BBcorina  12272117083D 1   1.00000     0.00000 
CORINA 4.3.0 0026  30.10.2019
 12 12  0  0  0  0  0  0  0  0999 V2000
  -33.6407    7.3299  -41.6052 C   0  0  0  0  0  0  0  0  0  0  0  0
  -34.9467    6.5602  -41.3976 C   0  0  0  0  0  0  0  0  0  0  0  0
  -36.0466    7.5302  -40.9618 C   0  0  0  0  0  0  0  0  0  0  0  0
  -34.7534    5.5377  -40.3565 C   0  0  0  0  0  0  0  0  0  0  0  0
  -34.6042    4.7486  -39.5529 N   0  0  0  0  0  0  0  0  0  0  0  0
  -35.3535    5.8832  -42.7080 C   0  0  0  0  0  0  0  0  0  0  0  0
  -36.6587    5.1099  -42.5007 C   0  0  0  0  0  0  0  0  0  0  0  0
  -37.0290    4.3869  -43.7977 C   0  0  0  0  0  0  0  0  0  0  0  0
  -35.9480    3.4664  -44.1723 N   0  0  0  0  0  0  0  0  0  0  0  0
  -34.6958    4.1916  -44.4226 C   0  0  0  0  0  0  0  0  0  0  0  0
  -34.2558    4.9088  -43.1443 C   0  0  0  0  0  0  0  0  0  0  0  0
  -36.3899    2.5209  -45.5269 X   0  0  0  0  0  0  0  0  0  0  0  0
  1  2  1  0  0  0  0
  2  3  1  0  0  0  0
  2  4  1  0  0  0  0
  2  6  1  0  0  0  0
  4  5  3  0  0  0  0
  6  7  1  0  0  0  0
  6 11  1  0  0  0  0
  7  8  1  0  0  0  0
  8  9  1  0  0  0  0
  9 10  1  0  0  0  0
  9 12  1  0  0  0  0
 10 11  1  0  0  0  0
M  END
> <Index>
12149

> <PropertyFieldDistance>
nan

$$$$
10906496
BBcorina  12272117083D 1   1.00000     0.00000 
CORINA 4.3.0 0026  30.10.2019
  9  9  0  0  0  0  0  0  0  0999 V2000
  -34.1849    2.1650  -41.4538 C   0  0  0  0  0  0  0  0  0  0  0  0
  -35.3230    3.0223  -41.5627 O   0  0  0  0  0  0  0  0  0  0  0  0
  -35.1008    4.1841  -42.3647 C   0  0  0  0  0  0  0  0  0  0  0  0
  -34.0003    5.0583  -41.7602 C   0  0  0  0  0  0  0  0  0  0  0  0
  -36.4137    4.9932  -42.5334 C   0  0  0  0  0  0  0  0  0  0  0  0
  -37.1005    4.2362  -43.6973 C   0  0  0  0  0  0  0  0  0  0  0  0
  -35.9952    3.8463  -44.5984 N   0  0  0  0  0  0  0  0  0  0  0  0
  -34.7483    3.7874  -43.8138 C   0  0  0  0  0  0  0  0  0  0  0  0
  -36.3179    2.3445  -45.3498 X   0  0  0  0  0  0  0  0  0  0  0  0
  1  2  1  0  0  0  0
  2  3  1  0  0  0  0
  3  4  1  0  0  0  0
  3  5  1  0  0  0  0
  3  8  1  0  0  0  0
  5  6  1  0  0  0  0
  6  7  1  0  0  0  0
  7  8  1  0  0  0  0
  7  9  1  0  0  0  0
M  END
> <Index>
12156

> <PropertyFieldDistance>
nan

$$$$
9864738
BBcorina  12272117083D 1   1.00000     0.00000 
CORINA 4.3.0 0026  30.10.2019
 10 10  0  0  0  0  0  0  0  0999 V2000
  -36.3354    2.3075  -44.8787 C   0  0  0  0  0  0  0  0  0  0  0  0
  -35.9453    3.3416  -43.9110 N   0  0  0  0  0  0  0  0  0  0  0  0
  -37.0432    4.2897  -43.6828 C   0  0  0  0  0  0  0  0  0  0  0  0
  -36.6554    5.2625  -42.5667 C   0  0  0  0  0  0  0  0  0  0  0  0
  -35.3834    6.0133  -42.9700 C   0  0  0  0  0  0  0  0  0  0  0  0
  -34.2691    5.0007  -43.2489 C   0  0  0  0  0  0  0  0  0  0  0  0
  -34.7262    4.0356  -44.3451 C   0  0  0  0  0  0  0  0  0  0  0  0
  -34.9844    6.8819  -41.9077 O   0  0  0  0  0  0  0  0  0  0  0  0
  -34.1849    8.0269  -42.3438 N   0  0  0  0  0  0  0  0  0  0  0  0
  -33.7506    9.0124  -41.0155 X   0  0  0  0  0  0  0  0  0  0  0  0
  1  2  1  0  0  0  0
  2  3  1  0  0  0  0
  2  7  1  0  0  0  0
  3  4  1  0  0  0  0
  4  5  1  0  0  0  0
  5  6  1  0  0  0  0
  5  8  1  0  0  0  0
  6  7  1  0  0  0  0
  8  9  1  0  0  0  0
  9 10  1  0  0  0  0
M  END
> <Index>
12175

> <PropertyFieldDistance>
nan

$$$$
9877420
BBcorina  12272117083D 1   1.00000     0.00000 
CORINA 4.3.0 0026  30.10.2019
 13 13  0  0  0  0  0  0  0  0999 V2000
  -36.0191    3.9414  -44.5845 N   0  0  0  0  0  0  0  0  0  0  0  0
  -36.9723    4.0086  -43.4694 C   0  0  0  0  0  0  0  0  0  0  0  0
  -36.6793    5.2476  -42.6203 C   0  0  0  0  0  0  0  0  0  0  0  0
  -35.2462    5.1675  -42.0868 C   0  0  0  0  0  0  0  0  0  0  0  0
  -34.2769    5.0496  -43.2664 C   0  0  0  0  0  0  0  0  0  0  0  0
  -34.6396    3.8164  -44.0971 C   0  0  0  0  0  0  0  0  0  0  0  0
  -34.9307    6.4122  -41.2983 C   0  0  0  0  0  0  0  0  0  0  0  0
  -34.0204    7.1350  -41.6444 O   0  0  0  0  0  0  0  0  0  0  0  0
  -35.6601    6.7224  -40.2081 N   0  0  0  0  0  0  0  0  0  0  0  0
  -35.3534    7.9325  -39.4415 C   0  0  0  0  0  0  0  0  0  0  0  0
  -36.2856    8.0447  -38.3079 C   0  0  0  0  0  0  0  0  0  0  0  0
  -37.0292    8.1342  -37.4039 C   0  0  0  0  0  0  0  0  0  0  0  0
  -36.4111    2.6624  -45.6495 X   0  0  0  0  0  0  0  0  0  0  0  0
  1  2  1  0  0  0  0
  1  6  1  0  0  0  0
  1 13  1  0  0  0  0
  2  3  1  0  0  0  0
  3  4  1  0  0  0  0
  4  5  1  0  0  0  0
  4  7  1  0  0  0  0
  5  6  1  0  0  0  0
  7  8  2  0  0  0  0
  7  9  1  0  0  0  0
  9 10  1  0  0  0  0
 10 11  1  0  0  0  0
 11 12  3  0  0  0  0
M  END
> <Index>
12205

> <PropertyFieldDistance>
nan

$$$$
9963390
BBcorina  12272117083D 1   1.00000     0.00000 
CORINA 4.3.0 0026  30.10.2019
  8  9  0  0  0  0  0  0  0  0999 V2000
  -36.0544    4.0028  -44.7099 N   0  0  0  0  0  0  0  0  0  0  0  0
  -36.7774    3.9263  -43.4140 C   0  0  0  0  0  0  0  0  0  0  0  0
  -35.6552    2.9462  -43.0121 C   0  0  0  0  0  0  0  0  0  0  0  0
  -34.7839    3.7847  -43.9707 C   0  0  0  0  0  0  0  0  0  0  0  0
  -34.3337    5.0932  -43.2933 C   0  0  0  0  0  0  0  0  0  0  0  0
  -35.4828    5.9406  -43.1557 O   0  0  0  0  0  0  0  0  0  0  0  0
  -36.6378    5.2566  -42.6498 C   0  0  0  0  0  0  0  0  0  0  0  0
  -36.1231    5.5839  -45.3575 X   0  0  0  0  0  0  0  0  0  0  0  0
  1  2  1  0  0  0  0
  1  4  1  0  0  0  0
  1  8  1  0  0  0  0
  2  3  1  0  0  0  0
  2  7  1  0  0  0  0
  3  4  1  0  0  0  0
  4  5  1  0  0  0  0
  5  6  1  0  0  0  0
  6  7  1  0  0  0  0
M  END
> <Index>
12213

> <PropertyFieldDistance>
nan

$$$$
9965632
BBcorina  12272117083D 1   1.00000     0.00000 
CORINA 4.3.0 0026  30.10.2019
 11 12  0  0  0  0  0  0  0  0999 V2000
  -34.8653    5.7545  -40.8293 C   0  0  0  0  0  0  0  0  0  0  0  0
  -35.3125    5.5072  -42.2715 C   0  0  0  0  0  0  0  0  0  0  0  0
  -36.7487    5.0217  -42.4255 C   0  0  0  0  0  0  0  0  0  0  0  0
  -36.9681    4.4861  -43.8416 C   0  0  0  0  0  0  0  0  0  0  0  0
  -35.9611    3.4732  -44.1337 N   0  0  0  0  0  0  0  0  0  0  0  0
  -34.6592    4.0943  -44.4036 C   0  0  0  0  0  0  0  0  0  0  0  0
  -34.2503    4.9883  -43.2333 C   0  0  0  0  0  0  0  0  0  0  0  0
  -34.7086    6.4142  -43.3363 C   0  0  0  0  0  0  0  0  0  0  0  0
  -35.7398    6.8360  -44.7539 Cl  0  0  0  0  0  0  0  0  0  0  0  0
  -33.5746    7.7037  -42.7870 Cl  0  0  0  0  0  0  0  0  0  0  0  0
  -36.4474    2.4785  -45.4368 X   0  0  0  0  0  0  0  0  0  0  0  0
  1  2  1  0  0  0  0
  2  3  1  0  0  0  0
  2  7  1  0  0  0  0
  2  8  1  0  0  0  0
  3  4  1  0  0  0  0
  4  5  1  0  0  0  0
  5  6  1  0  0  0  0
  5 11  1  0  0  0  0
  6  7  1  0  0  0  0
  7  8  1  0  0  0  0
  8  9  1  0  0  0  0
  8 10  1  0  0  0  0
M  END
> <Index>
12225

> <PropertyFieldDistance>
nan

$$$$
9983580
BBcorina  12272117083D 1   1.00000     0.00000 
CORINA 4.3.0 0026  30.10.2019
 12 12  0  0  0  0  0  0  0  0999 V2000
  -33.1882    7.4946  -40.0250 C   0  0  0  0  0  0  0  0  0  0  0  0
  -33.5892    6.3564  -40.7903 O   0  0  0  0  0  0  0  0  0  0  0  0
  -34.9269    6.4323  -41.2873 C   0  0  0  0  0  0  0  0  0  0  0  0
  -35.2462    5.1676  -42.0870 C   0  0  0  0  0  0  0  0  0  0  0  0
  -36.6793    5.2476  -42.6202 C   0  0  0  0  0  0  0  0  0  0  0  0
  -36.9723    4.0086  -43.4694 C   0  0  0  0  0  0  0  0  0  0  0  0
  -36.0191    3.9414  -44.5845 N   0  0  0  0  0  0  0  0  0  0  0  0
  -34.6396    3.8164  -44.0970 C   0  0  0  0  0  0  0  0  0  0  0  0
  -34.2769    5.0496  -43.2665 C   0  0  0  0  0  0  0  0  0  0  0  0
  -35.1098    3.9871  -41.2182 C   0  0  0  0  0  0  0  0  0  0  0  0
  -35.0045    3.0762  -40.5477 N   0  0  0  0  0  0  0  0  0  0  0  0
  -36.4111    2.6621  -45.6494 X   0  0  0  0  0  0  0  0  0  0  0  0
  1  2  1  0  0  0  0
  2  3  1  0  0  0  0
  3  4  1  0  0  0  0
  4  5  1  0  0  0  0
  4  9  1  0  0  0  0
  4 10  1  0  0  0  0
  5  6  1  0  0  0  0
  6  7  1  0  0  0  0
  7  8  1  0  0  0  0
  7 12  1  0  0  0  0
  8  9  1  0  0  0  0
 10 11  3  0  0  0  0
M  END
> <Index>
12226

> <PropertyFieldDistance>
nan

$$$$
10742638
BBcorina  12272117083D 1   1.00000     0.00000 
CORINA 4.3.0 0026  30.10.2019
 10 10  0  0  0  0  0  0  0  0999 V2000
  -35.4940    7.8352  -41.3241 C   0  0  0  0  0  0  0  0  0  0  0  0
  -34.9727    6.5143  -41.4837 O   0  0  0  0  0  0  0  0  0  0  0  0
  -35.3534    5.8832  -42.7080 C   0  0  0  0  0  0  0  0  0  0  0  0
  -36.6587    5.1099  -42.5007 C   0  0  0  0  0  0  0  0  0  0  0  0
  -37.0290    4.3869  -43.7977 C   0  0  0  0  0  0  0  0  0  0  0  0
  -35.9479    3.4664  -44.1723 N   0  0  0  0  0  0  0  0  0  0  0  0
  -34.6959    4.1916  -44.4227 C   0  0  0  0  0  0  0  0  0  0  0  0
  -34.2558    4.9088  -43.1443 C   0  0  0  0  0  0  0  0  0  0  0  0
  -32.9630    5.6821  -43.4116 C   0  0  0  0  0  0  0  0  0  0  0  0
  -36.3898    2.5210  -45.5270 X   0  0  0  0  0  0  0  0  0  0  0  0
  1  2  1  0  0  0  0
  2  3  1  0  0  0  0
  3  4  1  0  0  0  0
  3  8  1  0  0  0  0
  4  5  1  0  0  0  0
  5  6  1  0  0  0  0
  6  7  1  0  0  0  0
  6 10  1  0  0  0  0
  7  8  1  0  0  0  0
  8  9  1  0  0  0  0
M  END
> <Index>
12232

> <PropertyFieldDistance>
nan

$$$$
9984200
BBcorina  12272117083D 1   1.00000     0.00000 
CORINA 4.3.0 0026  30.10.2019
 12 13  0  0  0  0  0  0  0  0999 V2000
  -35.6284    3.0995  -47.6286 N   0  0  0  0  0  0  0  0  0  0  0  0
  -35.9635    2.2102  -46.5083 C   0  0  0  0  0  0  0  0  0  0  0  0
  -36.6296    3.0071  -45.4164 C   0  0  0  0  0  0  0  0  0  0  0  0
  -37.9558    3.1579  -45.2243 C   0  0  0  0  0  0  0  0  0  0  0  0
  -38.1346    3.9388  -44.1464 N   0  0  0  0  0  0  0  0  0  0  0  0
  -36.9740    4.2757  -43.6648 C   0  0  0  0  0  0  0  0  0  0  0  0
  -36.6981    5.1423  -42.4588 C   0  0  0  0  0  0  0  0  0  0  0  0
  -35.2361    4.9346  -42.0437 C   0  0  0  0  0  0  0  0  0  0  0  0
  -34.3379    5.0640  -43.2773 C   0  0  0  0  0  0  0  0  0  0  0  0
  -34.5689    3.8669  -44.2061 C   0  0  0  0  0  0  0  0  0  0  0  0
  -36.0084    3.7147  -44.4307 N   0  0  0  0  0  0  0  0  0  0  0  0
  -34.8689    2.2334  -48.8924 X   0  0  0  0  0  0  0  0  0  0  0  0
  1  2  1  0  0  0  0
  1 12  1  0  0  0  0
  2  3  1  0  0  0  0
  3  4  2  0  0  0  0
  3 11  1  0  0  0  0
  4  5  1  0  0  0  0
  5  6  2  0  0  0  0
  6  7  1  0  0  0  0
  6 11  1  0  0  0  0
  7  8  1  0  0  0  0
  8  9  1  0  0  0  0
  9 10  1  0  0  0  0
 10 11  1  0  0  0  0
M  END
> <Index>
12241

> <PropertyFieldDistance>
nan

$$$$
10125280
BBcorina  12272117083D 1   1.00000     0.00000 
CORINA 4.3.0 0026  30.10.2019
 13 14  0  0  0  0  0  0  0  0999 V2000
  -37.7856   -1.1125  -44.4018 C   0  0  0  0  0  0  0  0  0  0  0  0
  -37.2365    0.0988  -45.1583 C   0  0  0  0  0  0  0  0  0  0  0  0
  -37.4538    1.3927  -44.3349 C   0  0  0  0  0  0  0  0  0  0  0  0
  -36.3427    2.3152  -44.9018 C   0  0  0  0  0  0  0  0  0  0  0  0
  -35.1824    1.3350  -45.1741 C   0  0  0  0  0  0  0  0  0  0  0  0
  -35.7700   -0.0105  -45.3100 N   0  0  0  0  0  0  0  0  0  0  0  0
  -35.9484    3.3239  -43.9092 N   0  0  0  0  0  0  0  0  0  0  0  0
  -37.0377    4.2818  -43.6704 C   0  0  0  0  0  0  0  0  0  0  0  0
  -36.6072    5.2766  -42.5891 C   0  0  0  0  0  0  0  0  0  0  0  0
  -35.3980    5.9223  -42.9967 O   0  0  0  0  0  0  0  0  0  0  0  0
  -34.3157    5.0188  -43.2373 C   0  0  0  0  0  0  0  0  0  0  0  0
  -34.7230    4.0215  -44.3252 C   0  0  0  0  0  0  0  0  0  0  0  0
  -35.3600   -0.7090  -46.8159 X   0  0  0  0  0  0  0  0  0  0  0  0
  1  2  1  0  0  0  0
  2  3  1  0  0  0  0
  2  6  1  0  0  0  0
  3  4  1  0  0  0  0
  4  5  1  0  0  0  0
  4  7  1  0  0  0  0
  5  6  1  0  0  0  0
  6 13  1  0  0  0  0
  7  8  1  0  0  0  0
  7 12  1  0  0  0  0
  8  9  1  0  0  0  0
  9 10  1  0  0  0  0
 10 11  1  0  0  0  0
 11 12  1  0  0  0  0
M  END
> <Index>
12251

> <PropertyFieldDistance>
nan

$$$$
10117840
BBcorina  12272117083D 1   1.00000     0.00000 
CORINA 4.3.0 0026  30.10.2019
 12 12  0  0  0  0  0  0  0  0999 V2000
  -35.1219   -0.0960  -47.2860 O   0  0  0  0  0  0  0  0  0  0  0  0
  -36.1694    0.6244  -46.6334 C   0  0  0  0  0  0  0  0  0  0  0  0
  -35.5626    1.6328  -45.6558 C   0  0  0  0  0  0  0  0  0  0  0  0
  -36.6762    2.4890  -45.0496 C   0  0  0  0  0  0  0  0  0  0  0  0
  -36.1095    3.3749  -44.0239 N   0  0  0  0  0  0  0  0  0  0  0  0
  -37.0947    4.3728  -43.5877 C   0  0  0  0  0  0  0  0  0  0  0  0
  -36.5218    5.1812  -42.4215 C   0  0  0  0  0  0  0  0  0  0  0  0
  -35.2318    5.8729  -42.8713 C   0  0  0  0  0  0  0  0  0  0  0  0
  -34.2408    4.8155  -43.3659 C   0  0  0  0  0  0  0  0  0  0  0  0
  -34.8799    4.0177  -44.5048 C   0  0  0  0  0  0  0  0  0  0  0  0
  -34.8594    0.9141  -44.5847 N   0  0  0  0  0  0  0  0  0  0  0  0
  -35.9297   -0.1061  -43.7260 X   0  0  0  0  0  0  0  0  0  0  0  0
  1  2  1  0  0  0  0
  2  3  1  0  0  0  0
  3  4  1  0  0  0  0
  3 11  1  0  0  0  0
  4  5  1  0  0  0  0
  5  6  1  0  0  0  0
  5 10  1  0  0  0  0
  6  7  1  0  0  0  0
  7  8  1  0  0  0  0
  8  9  1  0  0  0  0
  9 10  1  0  0  0  0
 11 12  1  0  0  0  0
M  END
> <Index>
12252

> <PropertyFieldDistance>
nan

$$$$
10126068
BBcorina  12272117083D 1   1.00000     0.00000 
CORINA 4.3.0 0026  30.10.2019
 12 13  0  0  0  0  0  0  0  0999 V2000
  -38.3589   -0.3017  -46.1413 C   0  0  0  0  0  0  0  0  0  0  0  0
  -37.3420    0.8106  -46.4053 C   0  0  0  0  0  0  0  0  0  0  0  0
  -37.6354    2.0210  -45.4996 C   0  0  0  0  0  0  0  0  0  0  0  0
  -36.3511    2.2197  -44.6625 C   0  0  0  0  0  0  0  0  0  0  0  0
  -35.2671    1.5187  -45.5194 C   0  0  0  0  0  0  0  0  0  0  0  0
  -35.9807    0.3386  -46.0712 N   0  0  0  0  0  0  0  0  0  0  0  0
  -36.0474    3.6486  -44.5075 N   0  0  0  0  0  0  0  0  0  0  0  0
  -37.0948    4.3295  -43.7244 C   0  0  0  0  0  0  0  0  0  0  0  0
  -36.4026    4.9956  -42.5168 C   0  0  0  0  0  0  0  0  0  0  0  0
  -34.9316    5.1341  -42.9898 C   0  0  0  0  0  0  0  0  0  0  0  0
  -34.7493    3.8437  -43.8272 C   0  0  0  0  0  0  0  0  0  0  0  0
  -35.1842   -0.2659  -47.4583 X   0  0  0  0  0  0  0  0  0  0  0  0
  1  2  1  0  0  0  0
  2  3  1  0  0  0  0
  2  6  1  0  0  0  0
  3  4  1  0  0  0  0
  4  5  1  0  0  0  0
  4  7  1  0  0  0  0
  5  6  1  0  0  0  0
  6 12  1  0  0  0  0
  7  8  1  0  0  0  0
  7 11  1  0  0  0  0
  8  9  1  0  0  0  0
  9 10  1  0  0  0  0
 10 11  1  0  0  0  0
M  END
> <Index>
12265

> <PropertyFieldDistance>
nan

$$$$
10117850
BBcorina  12272117083D 1   1.00000     0.00000 
CORINA 4.3.0 0026  30.10.2019
 12 12  0  0  0  0  0  0  0  0999 V2000
  -34.8246    6.9572  -42.1338 N   0  0  0  0  0  0  0  0  0  0  0  0
  -35.1630    5.5577  -42.4252 C   0  0  0  0  0  0  0  0  0  0  0  0
  -36.6429    5.4576  -42.8054 C   0  0  0  0  0  0  0  0  0  0  0  0
  -36.9749    4.0081  -43.1668 C   0  0  0  0  0  0  0  0  0  0  0  0
  -36.1324    3.5770  -44.2897 N   0  0  0  0  0  0  0  0  0  0  0  0
  -36.5188    2.2380  -44.7539 C   0  0  0  0  0  0  0  0  0  0  0  0
  -35.7986    1.9261  -46.0674 C   0  0  0  0  0  0  0  0  0  0  0  0
  -36.1951    0.5524  -46.5437 C   0  0  0  0  0  0  0  0  0  0  0  0
  -36.6897    0.3936  -47.7462 C   0  0  0  0  0  0  0  0  0  0  0  0
  -34.7087    3.6195  -43.9322 C   0  0  0  0  0  0  0  0  0  0  0  0
  -34.3091    5.0575  -43.5937 C   0  0  0  0  0  0  0  0  0  0  0  0
  -35.2109    7.9695  -43.4567 X   0  0  0  0  0  0  0  0  0  0  0  0
  1  2  1  0  0  0  0
  1 12  1  0  0  0  0
  2  3  1  0  0  0  0
  2 11  1  0  0  0  0
  3  4  1  0  0  0  0
  4  5  1  0  0  0  0
  5  6  1  0  0  0  0
  5 10  1  0  0  0  0
  6  7  1  0  0  0  0
  7  8  1  0  0  0  0
  8  9  2  0  0  0  0
 10 11  1  0  0  0  0
M  END
> <Index>
12273

> <PropertyFieldDistance>
nan

$$$$
15545444
BBcorina  12272117083D 1   1.00000     0.00000 
CORINA 4.3.0 0026  30.10.2019
 14 15  0  0  0  0  0  0  0  0999 V2000
  -36.3356    2.3073  -44.8787 C   0  0  0  0  0  0  0  0  0  0  0  0
  -35.9455    3.3415  -43.9110 N   0  0  0  0  0  0  0  0  0  0  0  0
  -37.0434    4.2896  -43.6828 C   0  0  0  0  0  0  0  0  0  0  0  0
  -36.6556    5.2623  -42.5668 C   0  0  0  0  0  0  0  0  0  0  0  0
  -35.3835    6.0131  -42.9701 C   0  0  0  0  0  0  0  0  0  0  0  0
  -34.2682    5.0015  -43.2486 C   0  0  0  0  0  0  0  0  0  0  0  0
  -34.7264    4.0354  -44.3452 C   0  0  0  0  0  0  0  0  0  0  0  0
  -34.9853    6.8828  -41.9085 O   0  0  0  0  0  0  0  0  0  0  0  0
  -34.2994    8.0576  -42.3457 C   0  0  0  0  0  0  0  0  0  0  0  0
  -33.3464    8.5656  -41.2395 C   0  0  0  0  0  0  0  0  0  0  0  0
  -33.5005   10.1046  -41.3294 C   0  0  0  0  0  0  0  0  0  0  0  0
  -34.9446   10.2849  -41.6263 N   0  0  0  0  0  0  0  0  0  0  0  0
  -35.2991    9.2064  -42.5741 C   0  0  0  0  0  0  0  0  0  0  0  0
  -35.2423   11.8239  -42.3098 X   0  0  0  0  0  0  0  0  0  0  0  0
  1  2  1  0  0  0  0
  2  3  1  0  0  0  0
  2  7  1  0  0  0  0
  3  4  1  0  0  0  0
  4  5  1  0  0  0  0
  5  6  1  0  0  0  0
  5  8  1  0  0  0  0
  6  7  1  0  0  0  0
  8  9  1  0  0  0  0
  9 10  1  0  0  0  0
  9 13  1  0  0  0  0
 10 11  1  0  0  0  0
 11 12  1  0  0  0  0
 12 13  1  0  0  0  0
 12 14  1  0  0  0  0
M  END
> <Index>
12287

> <PropertyFieldDistance>
nan

$$$$
15749708
BBcorina  12272117083D 1   1.00000     0.00000 
CORINA 4.3.0 0026  30.10.2019
 11 11  0  0  0  0  0  0  0  0999 V2000
  -35.0457    6.8860  -41.7406 C   0  0  0  0  0  0  0  0  0  0  0  0
  -35.4241    5.9662  -42.9033 C   0  0  0  0  0  0  0  0  0  0  0  0
  -36.6104    5.0831  -42.4979 C   0  0  0  0  0  0  0  0  0  0  0  0
  -37.0859    4.3072  -43.7269 C   0  0  0  0  0  0  0  0  0  0  0  0
  -35.9636    3.6397  -44.3743 N   0  0  0  0  0  0  0  0  0  0  0  0
  -34.6862    3.9752  -44.1894 C   0  0  0  0  0  0  0  0  0  0  0  0
  -33.8385    3.3732  -44.8138 O   0  0  0  0  0  0  0  0  0  0  0  0
  -34.2412    5.0583  -43.2492 C   0  0  0  0  0  0  0  0  0  0  0  0
  -33.6944    4.4257  -41.9679 C   0  0  0  0  0  0  0  0  0  0  0  0
  -32.4871    3.6497  -42.2816 N   0  0  0  0  0  0  0  0  0  0  0  0
  -31.8422    2.9240  -40.8740 X   0  0  0  0  0  0  0  0  0  0  0  0
  1  2  1  0  0  0  0
  2  3  1  0  0  0  0
  2  8  1  0  0  0  0
  3  4  1  0  0  0  0
  4  5  1  0  0  0  0
  5  6  1  0  0  0  0
  6  7  2  0  0  0  0
  6  8  1  0  0  0  0
  8  9  1  0  0  0  0
  9 10  1  0  0  0  0
 10 11  1  0  0  0  0
M  END
> <Index>
12290

> <PropertyFieldDistance>
nan

$$$$
16762198
BBcorina  12272117083D 1   1.00000     0.00000 
CORINA 4.3.0 0026  30.10.2019
 13 14  0  0  0  0  0  0  0  0999 V2000
  -35.9667    3.4657  -44.1712 N   0  0  0  0  0  0  0  0  0  0  0  0
  -36.9746    4.4859  -43.8390 C   0  0  0  0  0  0  0  0  0  0  0  0
  -36.6712    5.0326  -42.4418 C   0  0  0  0  0  0  0  0  0  0  0  0
  -35.2178    5.4053  -42.3480 C   0  0  0  0  0  0  0  0  0  0  0  0
  -34.3201    4.9859  -43.2127 C   0  0  0  0  0  0  0  0  0  0  0  0
  -34.6548    4.0935  -44.3731 C   0  0  0  0  0  0  0  0  0  0  0  0
  -34.7812    6.2835  -41.2428 C   0  0  0  0  0  0  0  0  0  0  0  0
  -33.4378    6.6436  -41.1342 C   0  0  0  0  0  0  0  0  0  0  0  0
  -33.0448    7.4671  -40.0939 C   0  0  0  0  0  0  0  0  0  0  0  0
  -34.0072    7.9043  -39.1947 C   0  0  0  0  0  0  0  0  0  0  0  0
  -35.3220    7.5090  -39.3619 C   0  0  0  0  0  0  0  0  0  0  0  0
  -35.6709    6.7245  -40.3606 N   0  0  0  0  0  0  0  0  0  0  0  0
  -35.8900    2.2623  -42.9586 X   0  0  0  0  0  0  0  0  0  0  0  0
  1  2  1  0  0  0  0
  1  6  1  0  0  0  0
  1 13  1  0  0  0  0
  2  3  1  0  0  0  0
  3  4  1  0  0  0  0
  4  5  2  0  0  0  0
  4  7  1  0  0  0  0
  5  6  1  0  0  0  0
  7  8  2  0  0  0  0
  7 12  1  0  0  0  0
  8  9  1  0  0  0  0
  9 10  2  0  0  0  0
 10 11  1  0  0  0  0
 11 12  2  0  0  0  0
M  END
> <Index>
12295

> <PropertyFieldDistance>
nan

$$$$
17509622
BBcorina  12272117083D 1   1.00000     0.00000 
CORINA 4.3.0 0026  30.10.2019
 13 14  0  0  0  0  0  0  0  0999 V2000
  -35.9667    3.4656  -44.1712 N   0  0  0  0  0  0  0  0  0  0  0  0
  -36.9746    4.4859  -43.8390 C   0  0  0  0  0  0  0  0  0  0  0  0
  -36.6711    5.0326  -42.4418 C   0  0  0  0  0  0  0  0  0  0  0  0
  -35.2178    5.4054  -42.3480 C   0  0  0  0  0  0  0  0  0  0  0  0
  -34.3200    4.9859  -43.2126 C   0  0  0  0  0  0  0  0  0  0  0  0
  -34.6548    4.0935  -44.3731 C   0  0  0  0  0  0  0  0  0  0  0  0
  -34.7811    6.2837  -41.2426 C   0  0  0  0  0  0  0  0  0  0  0  0
  -34.2754    7.5636  -41.4978 C   0  0  0  0  0  0  0  0  0  0  0  0
  -33.8790    8.3499  -40.4361 C   0  0  0  0  0  0  0  0  0  0  0  0
  -33.9664    7.9080  -39.1960 N   0  0  0  0  0  0  0  0  0  0  0  0
  -34.4421    6.7108  -38.9111 C   0  0  0  0  0  0  0  0  0  0  0  0
  -34.8612    5.8586  -39.9115 C   0  0  0  0  0  0  0  0  0  0  0  0
  -35.8900    2.2623  -42.9587 X   0  0  0  0  0  0  0  0  0  0  0  0
  1  2  1  0  0  0  0
  1  6  1  0  0  0  0
  1 13  1  0  0  0  0
  2  3  1  0  0  0  0
  3  4  1  0  0  0  0
  4  5  2  0  0  0  0
  4  7  1  0  0  0  0
  5  6  1  0  0  0  0
  7  8  2  0  0  0  0
  7 12  1  0  0  0  0
  8  9  1  0  0  0  0
  9 10  2  0  0  0  0
 10 11  1  0  0  0  0
 11 12  2  0  0  0  0
M  END
> <Index>
12296

> <PropertyFieldDistance>
nan

$$$$
17544050
BBcorina  12272117083D 1   1.00000     0.00000 
CORINA 4.3.0 0026  30.10.2019
 11 12  0  0  0  0  0  0  0  0999 V2000
  -35.0402    6.8658  -41.8583 F   0  0  0  0  0  0  0  0  0  0  0  0
  -35.3913    6.0022  -42.9015 C   0  0  0  0  0  0  0  0  0  0  0  0
  -35.6394    6.7150  -44.0795 F   0  0  0  0  0  0  0  0  0  0  0  0
  -34.2998    4.9198  -43.1225 C   0  0  0  0  0  0  0  0  0  0  0  0
  -34.5198    3.9420  -41.9438 C   0  0  0  0  0  0  0  0  0  0  0  0
  -36.0033    4.0721  -41.5522 C   0  0  0  0  0  0  0  0  0  0  0  0
  -36.6111    5.1231  -42.5128 C   0  0  0  0  0  0  0  0  0  0  0  0
  -37.0351    4.3792  -43.7924 C   0  0  0  0  0  0  0  0  0  0  0  0
  -35.9565    3.4692  -44.1977 N   0  0  0  0  0  0  0  0  0  0  0  0
  -34.6848    4.1724  -44.4123 C   0  0  0  0  0  0  0  0  0  0  0  0
  -36.4009    2.5706  -45.5830 X   0  0  0  0  0  0  0  0  0  0  0  0
  1  2  1  0  0  0  0
  2  3  1  0  0  0  0
  2  4  1  0  0  0  0
  2  7  1  0  0  0  0
  4  5  1  0  0  0  0
  4 10  1  0  0  0  0
  5  6  1  0  0  0  0
  6  7  1  0  0  0  0
  7  8  1  0  0  0  0
  8  9  1  0  0  0  0
  9 10  1  0  0  0  0
  9 11  1  0  0  0  0
M  END
> <Index>
12297

> <PropertyFieldDistance>
nan

$$$$
10025230
BBcorina  12272117083D 1   1.00000     0.00000 
CORINA 4.3.0 0026  30.10.2019
 12 12  0  0  0  0  0  0  0  0999 V2000
  -32.7503    5.7853  -42.2182 C   0  0  0  0  0  0  0  0  0  0  0  0
  -34.0376    5.2361  -41.9299 O   0  0  0  0  0  0  0  0  0  0  0  0
  -34.9066    5.1664  -43.0621 C   0  0  0  0  0  0  0  0  0  0  0  0
  -36.3917    5.1760  -42.6172 C   0  0  0  0  0  0  0  0  0  0  0  0
  -37.0920    4.1708  -43.5502 C   0  0  0  0  0  0  0  0  0  0  0  0
  -38.2001    4.8742  -44.3365 C   0  0  0  0  0  0  0  0  0  0  0  0
  -39.2686    5.2852  -43.4160 N   0  0  0  0  0  0  0  0  0  0  0  0
  -40.2826    6.0886  -44.1117 C   0  0  0  0  0  0  0  0  0  0  0  0
  -36.0672    3.6494  -44.4804 N   0  0  0  0  0  0  0  0  0  0  0  0
  -36.3265    2.2425  -44.8143 C   0  0  0  0  0  0  0  0  0  0  0  0
  -34.7678    3.7985  -43.7764 C   0  0  0  0  0  0  0  0  0  0  0  0
  -39.9780    3.9277  -42.6555 X   0  0  0  0  0  0  0  0  0  0  0  0
  1  2  1  0  0  0  0
  2  3  1  0  0  0  0
  3  4  1  0  0  0  0
  3 11  1  0  0  0  0
  4  5  1  0  0  0  0
  5  6  1  0  0  0  0
  5  9  1  0  0  0  0
  6  7  1  0  0  0  0
  7  8  1  0  0  0  0
  7 12  1  0  0  0  0
  9 10  1  0  0  0  0
  9 11  1  0  0  0  0
M  END
> <Index>
12308

> <PropertyFieldDistance>
nan

$$$$
10150894
BBcorina  12272117083D 1   1.00000     0.00000 
CORINA 4.3.0 0026  30.10.2019
 16 16  0  0  0  0  0  0  0  0999 V2000
  -39.6849    0.2524  -46.2032 C   0  0  0  0  0  0  0  0  0  0  0  0
  -38.2862   -0.3193  -45.9633 C   0  0  0  0  0  0  0  0  0  0  0  0
  -37.2853    0.7249  -46.1961 N   0  0  0  0  0  0  0  0  0  0  0  0
  -36.7143    0.9072  -47.5329 C   0  0  0  0  0  0  0  0  0  0  0  0
  -35.4653    0.0355  -47.6772 C   0  0  0  0  0  0  0  0  0  0  0  0
  -36.8898    1.5177  -45.1805 C   0  0  0  0  0  0  0  0  0  0  0  0
  -37.3624    1.3666  -44.0739 O   0  0  0  0  0  0  0  0  0  0  0  0
  -35.8602    2.5917  -45.4200 C   0  0  0  0  0  0  0  0  0  0  0  0
  -35.7111    3.4063  -44.2067 N   0  0  0  0  0  0  0  0  0  0  0  0
  -36.9378    4.1638  -43.9273 C   0  0  0  0  0  0  0  0  0  0  0  0
  -36.7991    4.8844  -42.5844 C   0  0  0  0  0  0  0  0  0  0  0  0
  -35.5951    5.8288  -42.6392 C   0  0  0  0  0  0  0  0  0  0  0  0
  -34.3389    5.0222  -42.9793 C   0  0  0  0  0  0  0  0  0  0  0  0
  -34.5487    4.2977  -44.3108 C   0  0  0  0  0  0  0  0  0  0  0  0
  -35.4230    6.4809  -41.3342 N   0  0  0  0  0  0  0  0  0  0  0  0
  -35.0489    5.3352  -40.1211 X   0  0  0  0  0  0  0  0  0  0  0  0
  1  2  1  0  0  0  0
  2  3  1  0  0  0  0
  3  4  1  0  0  0  0
  3  6  1  0  0  0  0
  4  5  1  0  0  0  0
  6  7  2  0  0  0  0
  6  8  1  0  0  0  0
  8  9  1  0  0  0  0
  9 10  1  0  0  0  0
  9 14  1  0  0  0  0
 10 11  1  0  0  0  0
 11 12  1  0  0  0  0
 12 13  1  0  0  0  0
 12 15  1  0  0  0  0
 13 14  1  0  0  0  0
 15 16  1  0  0  0  0
M  END
> <Index>
12316

> <PropertyFieldDistance>
nan

$$$$
12898930
BBcorina  12272117083D 1   1.00000     0.00000 
CORINA 4.3.0 0026  30.10.2019
  8  8  0  0  0  0  0  0  0  0999 V2000
  -34.3094    5.8700  -40.7059 F   0  0  0  0  0  0  0  0  0  0  0  0
  -34.0823    4.8033  -41.5822 C   0  0  0  0  0  0  0  0  0  0  0  0
  -34.9087    5.0034  -42.8542 C   0  0  0  0  0  0  0  0  0  0  0  0
  -36.4203    5.0032  -42.5302 C   0  0  0  0  0  0  0  0  0  0  0  0
  -37.0792    4.2273  -43.6856 C   0  0  0  0  0  0  0  0  0  0  0  0
  -35.9998    3.8418  -44.6205 N   0  0  0  0  0  0  0  0  0  0  0  0
  -34.7584    3.7908  -43.8067 C   0  0  0  0  0  0  0  0  0  0  0  0
  -36.3244    2.3246  -45.3392 X   0  0  0  0  0  0  0  0  0  0  0  0
  1  2  1  0  0  0  0
  2  3  1  0  0  0  0
  3  4  1  0  0  0  0
  3  7  1  0  0  0  0
  4  5  1  0  0  0  0
  5  6  1  0  0  0  0
  6  7  1  0  0  0  0
  6  8  1  0  0  0  0
M  END
> <Index>
12320

> <PropertyFieldDistance>
nan

$$$$
10173844
BBcorina  12272117083D 1   1.00000     0.00000 
CORINA 4.3.0 0026  30.10.2019
 15 16  0  0  0  0  0  0  0  0999 V2000
  -36.3426    4.1015  -46.7649 Cl  0  0  0  0  0  0  0  0  0  0  0  0
  -36.4463    2.5190  -46.0587 C   0  0  0  0  0  0  0  0  0  0  0  0
  -36.7431    1.4262  -46.8504 C   0  0  0  0  0  0  0  0  0  0  0  0
  -36.8319    0.1661  -46.2869 C   0  0  0  0  0  0  0  0  0  0  0  0
  -36.6180   -0.0054  -44.9319 C   0  0  0  0  0  0  0  0  0  0  0  0
  -36.3148    1.0820  -44.1353 C   0  0  0  0  0  0  0  0  0  0  0  0
  -36.2252    2.3486  -44.6967 C   0  0  0  0  0  0  0  0  0  0  0  0
  -35.9191    3.4507  -43.8937 N   0  0  0  0  0  0  0  0  0  0  0  0
  -37.1033    4.3215  -43.7137 C   0  0  0  0  0  0  0  0  0  0  0  0
  -37.0130    5.1327  -42.5014 C   0  0  0  0  0  0  0  0  0  0  0  0
  -35.7907    6.0731  -42.5303 C   0  0  0  0  0  0  0  0  0  0  0  0
  -34.6127    5.3081  -42.1990 N   0  0  0  0  0  0  0  0  0  0  0  0
  -33.8855    4.7729  -43.3743 C   0  0  0  0  0  0  0  0  0  0  0  0
  -34.8286    4.2113  -44.4534 C   0  0  0  0  0  0  0  0  0  0  0  0
  -33.5652    6.2017  -41.1851 X   0  0  0  0  0  0  0  0  0  0  0  0
  1  2  1  0  0  0  0
  2  3  2  0  0  0  0
  2  7  1  0  0  0  0
  3  4  1  0  0  0  0
  4  5  2  0  0  0  0
  5  6  1  0  0  0  0
  6  7  2  0  0  0  0
  7  8  1  0  0  0  0
  8  9  1  0  0  0  0
  8 14  1  0  0  0  0
  9 10  1  0  0  0  0
 10 11  1  0  0  0  0
 11 12  1  0  0  0  0
 12 13  1  0  0  0  0
 12 15  1  0  0  0  0
 13 14  1  0  0  0  0
M  END
> <Index>
12324

> <PropertyFieldDistance>
nan

$$$$
10175970
BBcorina  12272117083D 1   1.00000     0.00000 
CORINA 4.3.0 0026  30.10.2019
 12 12  0  0  0  0  0  0  0  0999 V2000
  -37.8129    0.6588  -45.8578 C   0  0  0  0  0  0  0  0  0  0  0  0
  -37.6107    1.9032  -45.1373 O   0  0  0  0  0  0  0  0  0  0  0  0
  -36.3384    2.2622  -44.8825 C   0  0  0  0  0  0  0  0  0  0  0  0
  -35.4220    1.5551  -45.2521 O   0  0  0  0  0  0  0  0  0  0  0  0
  -36.0813    3.4059  -44.2175 N   0  0  0  0  0  0  0  0  0  0  0  0
  -37.0926    4.3529  -43.7137 C   0  0  0  0  0  0  0  0  0  0  0  0
  -36.3919    5.1005  -42.5518 C   0  0  0  0  0  0  0  0  0  0  0  0
  -34.9444    5.2327  -43.0947 C   0  0  0  0  0  0  0  0  0  0  0  0
  -33.9424    5.3417  -41.9435 C   0  0  0  0  0  0  0  0  0  0  0  0
  -32.5903    5.5270  -42.4871 N   0  0  0  0  0  0  0  0  0  0  0  0
  -34.7409    3.9157  -43.8728 C   0  0  0  0  0  0  0  0  0  0  0  0
  -31.4369    5.6537  -41.2311 X   0  0  0  0  0  0  0  0  0  0  0  0
  1  2  1  0  0  0  0
  2  3  1  0  0  0  0
  3  4  2  0  0  0  0
  3  5  1  0  0  0  0
  5  6  1  0  0  0  0
  5 11  1  0  0  0  0
  6  7  1  0  0  0  0
  7  8  1  0  0  0  0
  8  9  1  0  0  0  0
  8 11  1  0  0  0  0
  9 10  1  0  0  0  0
 10 12  1  0  0  0  0
M  END
> <Index>
12325

> <PropertyFieldDistance>
nan

$$$$
10207868
BBcorina  12272117083D 1   1.00000     0.00000 
CORINA 4.3.0 0026  30.10.2019
 15 16  0  0  0  0  0  0  0  0999 V2000
  -34.8905    7.0734  -42.5064 N   0  0  0  0  0  0  0  0  0  0  0  0
  -35.1851    5.6398  -42.6328 C   0  0  0  0  0  0  0  0  0  0  0  0
  -36.6769    5.4489  -42.9164 C   0  0  0  0  0  0  0  0  0  0  0  0
  -36.9866    3.9518  -43.0132 C   0  0  0  0  0  0  0  0  0  0  0  0
  -36.0995    3.3493  -44.0177 N   0  0  0  0  0  0  0  0  0  0  0  0
  -34.6491    3.5441  -43.8869 C   0  0  0  0  0  0  0  0  0  0  0  0
  -34.3659    5.0505  -43.7834 C   0  0  0  0  0  0  0  0  0  0  0  0
  -36.6062    2.6270  -45.0364 C   0  0  0  0  0  0  0  0  0  0  0  0
  -37.8099    2.5648  -45.1980 O   0  0  0  0  0  0  0  0  0  0  0  0
  -35.7013    1.9122  -45.9549 C   0  0  0  0  0  0  0  0  0  0  0  0
  -34.4246    1.3949  -45.6407 C   0  0  0  0  0  0  0  0  0  0  0  0
  -33.9403    0.8352  -46.7149 N   0  0  0  0  0  0  0  0  0  0  0  0
  -34.8703    0.9655  -47.7524 N   0  0  0  0  0  0  0  0  0  0  0  0
  -35.9425    1.6233  -47.2831 C   0  0  0  0  0  0  0  0  0  0  0  0
  -35.3874    7.9266  -43.9026 X   0  0  0  0  0  0  0  0  0  0  0  0
  1  2  1  0  0  0  0
  1 15  1  0  0  0  0
  2  3  1  0  0  0  0
  2  7  1  0  0  0  0
  3  4  1  0  0  0  0
  4  5  1  0  0  0  0
  5  6  1  0  0  0  0
  5  8  1  0  0  0  0
  6  7  1  0  0  0  0
  8  9  2  0  0  0  0
  8 10  1  0  0  0  0
 10 11  1  0  0  0  0
 10 14  2  0  0  0  0
 11 12  2  0  0  0  0
 12 13  1  0  0  0  0
 13 14  1  0  0  0  0
M  END
> <Index>
12331

> <PropertyFieldDistance>
nan

$$$$
10173848
BBcorina  12272117083D 1   1.00000     0.00000 
CORINA 4.3.0 0026  30.10.2019
 15 16  0  0  0  0  0  0  0  0999 V2000
  -38.8076    1.6678  -47.7108 C   0  0  0  0  0  0  0  0  0  0  0  0
  -37.6619    1.8030  -46.8078 N   0  0  0  0  0  0  0  0  0  0  0  0
  -36.3091    1.3201  -47.1085 C   0  0  0  0  0  0  0  0  0  0  0  0
  -35.3805    2.0478  -46.1110 C   0  0  0  0  0  0  0  0  0  0  0  0
  -36.3495    2.3570  -44.9464 C   0  0  0  0  0  0  0  0  0  0  0  0
  -36.0373    3.6630  -44.3508 N   0  0  0  0  0  0  0  0  0  0  0  0
  -36.9514    3.9683  -43.2428 C   0  0  0  0  0  0  0  0  0  0  0  0
  -36.6923    5.3914  -42.7433 C   0  0  0  0  0  0  0  0  0  0  0  0
  -35.2385    5.5067  -42.2767 C   0  0  0  0  0  0  0  0  0  0  0  0
  -34.3080    5.1368  -43.4351 C   0  0  0  0  0  0  0  0  0  0  0  0
  -34.6362    3.7211  -43.9146 C   0  0  0  0  0  0  0  0  0  0  0  0
  -34.9675    6.8861  -41.8506 N   0  0  0  0  0  0  0  0  0  0  0  0
  -37.7149    2.3848  -45.5972 C   0  0  0  0  0  0  0  0  0  0  0  0
  -38.7123    2.8620  -45.0989 O   0  0  0  0  0  0  0  0  0  0  0  0
  -35.3230    7.9953  -43.1025 X   0  0  0  0  0  0  0  0  0  0  0  0
  1  2  1  0  0  0  0
  2  3  1  0  0  0  0
  2 13  1  0  0  0  0
  3  4  1  0  0  0  0
  4  5  1  0  0  0  0
  5  6  1  0  0  0  0
  5 13  1  0  0  0  0
  6  7  1  0  0  0  0
  6 11  1  0  0  0  0
  7  8  1  0  0  0  0
  8  9  1  0  0  0  0
  9 10  1  0  0  0  0
  9 12  1  0  0  0  0
 10 11  1  0  0  0  0
 12 15  1  0  0  0  0
 13 14  2  0  0  0  0
M  END
> <Index>
12333

> <PropertyFieldDistance>
nan

$$$$
10207444
BBcorina  12272117083D 1   1.00000     0.00000 
CORINA 4.3.0 0026  30.10.2019
 14 14  0  0  0  0  0  0  0  0999 V2000
  -35.5022    5.7057  -42.5587 N   0  0  0  0  0  0  0  0  0  0  0  0
  -36.6834    4.8341  -42.4888 C   0  0  0  0  0  0  0  0  0  0  0  0
  -36.8869    4.1460  -43.8407 C   0  0  0  0  0  0  0  0  0  0  0  0
  -35.6843    3.3723  -44.1796 N   0  0  0  0  0  0  0  0  0  0  0  0
  -35.8696    2.6350  -45.4365 C   0  0  0  0  0  0  0  0  0  0  0  0
  -36.9265    1.5775  -45.2475 C   0  0  0  0  0  0  0  0  0  0  0  0
  -37.3901    1.3736  -44.1456 O   0  0  0  0  0  0  0  0  0  0  0  0
  -37.3564    0.8582  -46.3032 N   0  0  0  0  0  0  0  0  0  0  0  0
  -38.3838   -0.1699  -46.1194 C   0  0  0  0  0  0  0  0  0  0  0  0
  -38.6820   -0.8027  -47.4146 C   0  0  0  0  0  0  0  0  0  0  0  0
  -38.9197   -1.3073  -48.4475 C   0  0  0  0  0  0  0  0  0  0  0  0
  -34.5032    4.2439  -44.2494 C   0  0  0  0  0  0  0  0  0  0  0  0
  -34.2996    4.9320  -42.8976 C   0  0  0  0  0  0  0  0  0  0  0  0
  -35.2866    6.5640  -41.0955 X   0  0  0  0  0  0  0  0  0  0  0  0
  1  2  1  0  0  0  0
  1 13  1  0  0  0  0
  1 14  1  0  0  0  0
  2  3  1  0  0  0  0
  3  4  1  0  0  0  0
  4  5  1  0  0  0  0
  4 12  1  0  0  0  0
  5  6  1  0  0  0  0
  6  7  2  0  0  0  0
  6  8  1  0  0  0  0
  8  9  1  0  0  0  0
  9 10  1  0  0  0  0
 10 11  3  0  0  0  0
 12 13  1  0  0  0  0
M  END
> <Index>
12342

> <PropertyFieldDistance>
nan

$$$$
17600734
BBcorina  12272117083D 1   1.00000     0.00000 
CORINA 4.3.0 0026  30.10.2019
 10 10  0  0  0  0  0  0  0  0999 V2000
  -32.0035    5.2881  -44.0166 N   0  0  0  0  0  0  0  0  0  0  0  0
  -32.8589    5.0723  -42.8420 C   0  0  0  0  0  0  0  0  0  0  0  0
  -34.3267    5.0703  -43.2735 C   0  0  0  0  0  0  0  0  0  0  0  0
  -35.2262    4.9500  -42.0374 C   0  0  0  0  0  0  0  0  0  0  0  0
  -36.6806    5.1343  -42.4780 C   0  0  0  0  0  0  0  0  0  0  0  0
  -36.9694    4.2612  -43.6653 C   0  0  0  0  0  0  0  0  0  0  0  0
  -38.1280    4.0338  -43.9421 O   0  0  0  0  0  0  0  0  0  0  0  0
  -36.0200    3.7232  -44.4315 N   0  0  0  0  0  0  0  0  0  0  0  0
  -34.5906    3.8745  -44.1894 C   0  0  0  0  0  0  0  0  0  0  0  0
  -30.3508    5.2974  -43.5777 X   0  0  0  0  0  0  0  0  0  0  0  0
  1  2  1  0  0  0  0
  1 10  1  0  0  0  0
  2  3  1  0  0  0  0
  3  4  1  0  0  0  0
  3  9  1  0  0  0  0
  4  5  1  0  0  0  0
  5  6  1  0  0  0  0
  6  7  2  0  0  0  0
  6  8  1  0  0  0  0
  8  9  1  0  0  0  0
M  END
> <Index>
12345

> <PropertyFieldDistance>
nan

$$$$
10214414
BBcorina  12272117083D 1   1.00000     0.00000 
CORINA 4.3.0 0026  30.10.2019
 12 12  0  0  0  0  0  0  0  0999 V2000
  -36.8347    2.7540  -42.6048 C   0  0  0  0  0  0  0  0  0  0  0  0
  -36.9723    4.0087  -43.4695 C   0  0  0  0  0  0  0  0  0  0  0  0
  -36.6793    5.2476  -42.6202 C   0  0  0  0  0  0  0  0  0  0  0  0
  -35.2462    5.1676  -42.0870 C   0  0  0  0  0  0  0  0  0  0  0  0
  -34.2769    5.0496  -43.2665 C   0  0  0  0  0  0  0  0  0  0  0  0
  -34.6396    3.8164  -44.0970 C   0  0  0  0  0  0  0  0  0  0  0  0
  -36.0191    3.9414  -44.5845 N   0  0  0  0  0  0  0  0  0  0  0  0
  -34.9257    6.4315  -41.2865 C   0  0  0  0  0  0  0  0  0  0  0  0
  -35.0710    7.6578  -42.1898 C   0  0  0  0  0  0  0  0  0  0  0  0
  -35.8948    6.5482  -40.1083 C   0  0  0  0  0  0  0  0  0  0  0  0
  -33.4911    6.3523  -40.7609 C   0  0  0  0  0  0  0  0  0  0  0  0
  -36.4111    2.6621  -45.6494 X   0  0  0  0  0  0  0  0  0  0  0  0
  1  2  1  0  0  0  0
  2  3  1  0  0  0  0
  2  7  1  0  0  0  0
  3  4  1  0  0  0  0
  4  5  1  0  0  0  0
  4  8  1  0  0  0  0
  5  6  1  0  0  0  0
  6  7  1  0  0  0  0
  7 12  1  0  0  0  0
  8  9  1  0  0  0  0
  8 10  1  0  0  0  0
  8 11  1  0  0  0  0
M  END
> <Index>
12352

> <PropertyFieldDistance>
nan

$$$$
10266134
BBcorina  12272117083D 1   1.00000     0.00000 
CORINA 4.3.0 0026  30.10.2019
 12 12  0  0  0  0  0  0  0  0999 V2000
  -37.0531    6.5429  -40.0551 C   0  0  0  0  0  0  0  0  0  0  0  0
  -36.1053    7.4140  -40.8821 C   0  0  0  0  0  0  0  0  0  0  0  0
  -35.5570    8.5433  -40.0076 C   0  0  0  0  0  0  0  0  0  0  0  0
  -34.9458    6.5589  -41.3972 C   0  0  0  0  0  0  0  0  0  0  0  0
  -35.3534    5.8832  -42.7079 C   0  0  0  0  0  0  0  0  0  0  0  0
  -35.5546    6.9450  -43.7911 C   0  0  0  0  0  0  0  0  0  0  0  0
  -36.6586    5.1099  -42.5008 C   0  0  0  0  0  0  0  0  0  0  0  0
  -37.0290    4.3869  -43.7978 C   0  0  0  0  0  0  0  0  0  0  0  0
  -35.9480    3.4664  -44.1723 N   0  0  0  0  0  0  0  0  0  0  0  0
  -34.6959    4.1916  -44.4227 C   0  0  0  0  0  0  0  0  0  0  0  0
  -34.2558    4.9088  -43.1443 C   0  0  0  0  0  0  0  0  0  0  0  0
  -36.3899    2.5210  -45.5269 X   0  0  0  0  0  0  0  0  0  0  0  0
  1  2  1  0  0  0  0
  2  3  1  0  0  0  0
  2  4  1  0  0  0  0
  4  5  1  0  0  0  0
  5  6  1  0  0  0  0
  5  7  1  0  0  0  0
  5 11  1  0  0  0  0
  7  8  1  0  0  0  0
  8  9  1  0  0  0  0
  9 10  1  0  0  0  0
  9 12  1  0  0  0  0
 10 11  1  0  0  0  0
M  END
> <Index>
12375

> <PropertyFieldDistance>
nan

$$$$
10264244
BBcorina  12272117083D 1   1.00000     0.00000 
CORINA 4.3.0 0026  30.10.2019
 13 13  0  0  0  0  0  0  0  0999 V2000
  -35.7222    0.6887  -44.2367 F   0  0  0  0  0  0  0  0  0  0  0  0
  -35.7517    1.3918  -45.4457 C   0  0  0  0  0  0  0  0  0  0  0  0
  -36.3280    0.5906  -46.4373 F   0  0  0  0  0  0  0  0  0  0  0  0
  -34.4469    1.7308  -45.8199 F   0  0  0  0  0  0  0  0  0  0  0  0
  -36.5805    2.6665  -45.2743 C   0  0  0  0  0  0  0  0  0  0  0  0
  -36.0612    3.4391  -44.1380 N   0  0  0  0  0  0  0  0  0  0  0  0
  -37.0752    4.3707  -43.6277 C   0  0  0  0  0  0  0  0  0  0  0  0
  -36.5531    5.0510  -42.3602 C   0  0  0  0  0  0  0  0  0  0  0  0
  -35.2599    5.8032  -42.6862 C   0  0  0  0  0  0  0  0  0  0  0  0
  -34.2373    4.8190  -43.2608 C   0  0  0  0  0  0  0  0  0  0  0  0
  -34.8265    4.1456  -44.5023 C   0  0  0  0  0  0  0  0  0  0  0  0
  -33.0130    5.5424  -43.6296 N   0  0  0  0  0  0  0  0  0  0  0  0
  -33.3405    6.7440  -44.8013 X   0  0  0  0  0  0  0  0  0  0  0  0
  1  2  1  0  0  0  0
  2  3  1  0  0  0  0
  2  4  1  0  0  0  0
  2  5  1  0  0  0  0
  5  6  1  0  0  0  0
  6  7  1  0  0  0  0
  6 11  1  0  0  0  0
  7  8  1  0  0  0  0
  8  9  1  0  0  0  0
  9 10  1  0  0  0  0
 10 11  1  0  0  0  0
 10 12  1  0  0  0  0
 12 13  1  0  0  0  0
M  END
> <Index>
12377

> <PropertyFieldDistance>
nan

$$$$
10264248
BBcorina  12272117083D 1   1.00000     0.00000 
CORINA 4.3.0 0026  30.10.2019
 11 11  0  0  0  0  0  0  0  0999 V2000
  -36.9449    1.7957  -45.7451 C   0  0  0  0  0  0  0  0  0  0  0  0
  -35.6958    2.3684  -45.1264 C   0  0  0  0  0  0  0  0  0  0  0  0
  -34.6093    1.9245  -45.4319 O   0  0  0  0  0  0  0  0  0  0  0  0
  -35.7861    3.3741  -44.2336 N   0  0  0  0  0  0  0  0  0  0  0  0
  -37.0332    4.0034  -43.7750 C   0  0  0  0  0  0  0  0  0  0  0  0
  -36.6452    5.1173  -42.7800 C   0  0  0  0  0  0  0  0  0  0  0  0
  -35.1744    5.4289  -43.1632 C   0  0  0  0  0  0  0  0  0  0  0  0
  -34.4029    5.9892  -41.9667 C   0  0  0  0  0  0  0  0  0  0  0  0
  -33.0298    6.3124  -42.3772 N   0  0  0  0  0  0  0  0  0  0  0  0
  -34.6507    4.0244  -43.5543 C   0  0  0  0  0  0  0  0  0  0  0  0
  -32.1307    6.9431  -41.0666 X   0  0  0  0  0  0  0  0  0  0  0  0
  1  2  1  0  0  0  0
  2  3  2  0  0  0  0
  2  4  1  0  0  0  0
  4  5  1  0  0  0  0
  4 10  1  0  0  0  0
  5  6  1  0  0  0  0
  6  7  1  0  0  0  0
  7  8  1  0  0  0  0
  7 10  1  0  0  0  0
  8  9  1  0  0  0  0
  9 11  1  0  0  0  0
M  END
> <Index>
12385

> <PropertyFieldDistance>
nan

$$$$
10300564
BBcorina  12272117083D 1   1.00000     0.00000 
CORINA 4.3.0 0026  30.10.2019
 13 13  0  0  0  0  0  0  0  0999 V2000
  -38.1623    2.2771  -45.3544 F   0  0  0  0  0  0  0  0  0  0  0  0
  -36.9039    2.0357  -45.9159 C   0  0  0  0  0  0  0  0  0  0  0  0
  -36.6494    2.9823  -46.9143 F   0  0  0  0  0  0  0  0  0  0  0  0
  -35.8320    2.1400  -44.8292 C   0  0  0  0  0  0  0  0  0  0  0  0
  -35.7627    3.5237  -44.3409 N   0  0  0  0  0  0  0  0  0  0  0  0
  -36.8801    3.8187  -43.4350 C   0  0  0  0  0  0  0  0  0  0  0  0
  -36.8584    5.3029  -43.0625 C   0  0  0  0  0  0  0  0  0  0  0  0
  -35.5261    5.6346  -42.3847 C   0  0  0  0  0  0  0  0  0  0  0  0
  -35.4742    7.1296  -42.0632 C   0  0  0  0  0  0  0  0  0  0  0  0
  -34.2501    7.4257  -41.3072 N   0  0  0  0  0  0  0  0  0  0  0  0
  -34.3774    5.2731  -43.3304 C   0  0  0  0  0  0  0  0  0  0  0  0
  -34.4710    3.7898  -43.6950 C   0  0  0  0  0  0  0  0  0  0  0  0
  -34.1523    9.0899  -40.9266 X   0  0  0  0  0  0  0  0  0  0  0  0
  1  2  1  0  0  0  0
  2  3  1  0  0  0  0
  2  4  1  0  0  0  0
  4  5  1  0  0  0  0
  5  6  1  0  0  0  0
  5 12  1  0  0  0  0
  6  7  1  0  0  0  0
  7  8  1  0  0  0  0
  8  9  1  0  0  0  0
  8 11  1  0  0  0  0
  9 10  1  0  0  0  0
 10 13  1  0  0  0  0
 11 12  1  0  0  0  0
M  END
> <Index>
12402

> <PropertyFieldDistance>
nan

$$$$
10964064
BBcorina  12272117083D 1   1.00000     0.00000 
CORINA 4.3.0 0026  30.10.2019
 12 13  0  0  0  0  0  0  0  0999 V2000
  -35.3856    7.8087  -40.6698 C   0  0  0  0  0  0  0  0  0  0  0  0
  -36.2453    6.9218  -41.4577 N   0  0  0  0  0  0  0  0  0  0  0  0
  -37.5923    7.1474  -41.7844 N   0  0  0  0  0  0  0  0  0  0  0  0
  -38.0177    6.1317  -42.4974 C   0  0  0  0  0  0  0  0  0  0  0  0
  -36.9592    5.2384  -42.6426 C   0  0  0  0  0  0  0  0  0  0  0  0
  -36.9640    3.9139  -43.3862 C   0  0  0  0  0  0  0  0  0  0  0  0
  -36.0255    4.0499  -44.5160 N   0  0  0  0  0  0  0  0  0  0  0  0
  -34.6447    3.8660  -44.1271 C   0  0  0  0  0  0  0  0  0  0  0  0
  -33.9939    4.9954  -43.3657 C   0  0  0  0  0  0  0  0  0  0  0  0
  -34.5332    5.0638  -41.9271 C   0  0  0  0  0  0  0  0  0  0  0  0
  -35.8885    5.7460  -41.9982 C   0  0  0  0  0  0  0  0  0  0  0  0
  -36.2426    5.5453  -45.3164 X   0  0  0  0  0  0  0  0  0  0  0  0
  1  2  1  0  0  0  0
  2  3  1  0  0  0  0
  2 11  1  0  0  0  0
  3  4  2  0  0  0  0
  4  5  1  0  0  0  0
  5  6  1  0  0  0  0
  5 11  2  0  0  0  0
  6  7  1  0  0  0  0
  7  8  1  0  0  0  0
  7 12  1  0  0  0  0
  8  9  1  0  0  0  0
  9 10  1  0  0  0  0
 10 11  1  0  0  0  0
M  END
> <Index>
12404

> <PropertyFieldDistance>
nan

$$$$
10388306
BBcorina  12272117083D 1   1.00000     0.00000 
CORINA 4.3.0 0026  30.10.2019
 15 15  0  0  0  0  0  0  0  0999 V2000
  -38.2861   -0.3194  -45.9633 C   0  0  0  0  0  0  0  0  0  0  0  0
  -37.2852    0.7247  -46.1960 N   0  0  0  0  0  0  0  0  0  0  0  0
  -36.7139    0.9068  -47.5328 C   0  0  0  0  0  0  0  0  0  0  0  0
  -36.8898    1.5177  -45.1805 C   0  0  0  0  0  0  0  0  0  0  0  0
  -37.3628    1.3669  -44.0739 O   0  0  0  0  0  0  0  0  0  0  0  0
  -35.8602    2.5917  -45.4200 C   0  0  0  0  0  0  0  0  0  0  0  0
  -35.7110    3.4064  -44.2067 N   0  0  0  0  0  0  0  0  0  0  0  0
  -36.9377    4.1638  -43.9274 C   0  0  0  0  0  0  0  0  0  0  0  0
  -36.7992    4.8844  -42.5843 C   0  0  0  0  0  0  0  0  0  0  0  0
  -35.5952    5.8289  -42.6392 C   0  0  0  0  0  0  0  0  0  0  0  0
  -35.4159    6.5081  -41.2800 C   0  0  0  0  0  0  0  0  0  0  0  0
  -34.3370    7.5012  -41.3674 N   0  0  0  0  0  0  0  0  0  0  0  0
  -34.3389    5.0222  -42.9793 C   0  0  0  0  0  0  0  0  0  0  0  0
  -34.5487    4.2977  -44.3109 C   0  0  0  0  0  0  0  0  0  0  0  0
  -34.1030    8.2857  -39.8662 X   0  0  0  0  0  0  0  0  0  0  0  0
  1  2  1  0  0  0  0
  2  3  1  0  0  0  0
  2  4  1  0  0  0  0
  4  5  2  0  0  0  0
  4  6  1  0  0  0  0
  6  7  1  0  0  0  0
  7  8  1  0  0  0  0
  7 14  1  0  0  0  0
  8  9  1  0  0  0  0
  9 10  1  0  0  0  0
 10 11  1  0  0  0  0
 10 13  1  0  0  0  0
 11 12  1  0  0  0  0
 12 15  1  0  0  0  0
 13 14  1  0  0  0  0
M  END
> <Index>
12427

> <PropertyFieldDistance>
nan

$$$$
10388308
BBcorina  12272117083D 1   1.00000     0.00000 
CORINA 4.3.0 0026  30.10.2019
 14 15  0  0  0  0  0  0  0  0999 V2000
  -38.2864    3.5302  -43.2051 C   0  0  0  0  0  0  0  0  0  0  0  0
  -37.0377    4.2819  -43.6704 C   0  0  0  0  0  0  0  0  0  0  0  0
  -36.6072    5.2766  -42.5891 C   0  0  0  0  0  0  0  0  0  0  0  0
  -35.3979    5.9222  -42.9966 O   0  0  0  0  0  0  0  0  0  0  0  0
  -34.3158    5.0187  -43.2373 C   0  0  0  0  0  0  0  0  0  0  0  0
  -34.7230    4.0215  -44.3252 C   0  0  0  0  0  0  0  0  0  0  0  0
  -35.9484    3.3239  -43.9092 N   0  0  0  0  0  0  0  0  0  0  0  0
  -36.3427    2.3152  -44.9018 C   0  0  0  0  0  0  0  0  0  0  0  0
  -36.4748    2.9750  -46.2772 C   0  0  0  0  0  0  0  0  0  0  0  0
  -36.8260    1.9089  -47.3175 C   0  0  0  0  0  0  0  0  0  0  0  0
  -35.7738    0.8848  -47.3450 N   0  0  0  0  0  0  0  0  0  0  0  0
  -35.6607    0.2048  -46.0485 C   0  0  0  0  0  0  0  0  0  0  0  0
  -35.2749    1.2200  -44.9703 C   0  0  0  0  0  0  0  0  0  0  0  0
  -36.0455   -0.2390  -48.6049 X   0  0  0  0  0  0  0  0  0  0  0  0
  1  2  1  0  0  0  0
  2  3  1  0  0  0  0
  2  7  1  0  0  0  0
  3  4  1  0  0  0  0
  4  5  1  0  0  0  0
  5  6  1  0  0  0  0
  6  7  1  0  0  0  0
  7  8  1  0  0  0  0
  8  9  1  0  0  0  0
  8 13  1  0  0  0  0
  9 10  1  0  0  0  0
 10 11  1  0  0  0  0
 11 12  1  0  0  0  0
 11 14  1  0  0  0  0
 12 13  1  0  0  0  0
M  END
> <Index>
12428

> <PropertyFieldDistance>
nan

$$$$
10430606
BBcorina  12272117083D 1   1.00000     0.00000 
CORINA 4.3.0 0026  30.10.2019
  8  8  0  0  0  0  0  0  0  0999 V2000
  -34.8052    1.8236  -41.8958 N   0  0  0  0  0  0  0  0  0  0  0  0
  -35.5891    2.3457  -43.0232 C   0  0  0  0  0  0  0  0  0  0  0  0
  -35.5896    3.8708  -42.9767 C   0  0  0  0  0  0  0  0  0  0  0  0
  -36.6035    4.4408  -43.9641 C   0  0  0  0  0  0  0  0  0  0  0  0
  -36.1146    4.2242  -45.3987 C   0  0  0  0  0  0  0  0  0  0  0  0
  -36.0053    2.4383  -45.7181 S   0  0  0  0  0  0  0  0  0  0  0  0
  -34.9700    1.8653  -44.3384 C   0  0  0  0  0  0  0  0  0  0  0  0
  -33.2173    2.4581  -41.9076 X   0  0  0  0  0  0  0  0  0  0  0  0
  1  2  1  0  0  0  0
  1  8  1  0  0  0  0
  2  3  1  0  0  0  0
  2  7  1  0  0  0  0
  3  4  1  0  0  0  0
  4  5  1  0  0  0  0
  5  6  1  0  0  0  0
  6  7  1  0  0  0  0
M  END
> <Index>
12445

> <PropertyFieldDistance>
nan

$$$$
10428778
BBcorina  12272117083D 1   1.00000     0.00000 
CORINA 4.3.0 0026  30.10.2019
 11 11  0  0  0  0  0  0  0  0999 V2000
  -34.6917    8.6800  -45.0834 C   0  0  0  0  0  0  0  0  0  0  0  0
  -34.3762    7.6565  -43.9907 C   0  0  0  0  0  0  0  0  0  0  0  0
  -35.5413    6.8749  -43.7195 O   0  0  0  0  0  0  0  0  0  0  0  0
  -35.3534    5.8831  -42.7079 C   0  0  0  0  0  0  0  0  0  0  0  0
  -34.9466    6.5602  -41.3976 C   0  0  0  0  0  0  0  0  0  0  0  0
  -36.6587    5.1099  -42.5008 C   0  0  0  0  0  0  0  0  0  0  0  0
  -37.0290    4.3869  -43.7977 C   0  0  0  0  0  0  0  0  0  0  0  0
  -35.9479    3.4664  -44.1723 N   0  0  0  0  0  0  0  0  0  0  0  0
  -34.6959    4.1916  -44.4226 C   0  0  0  0  0  0  0  0  0  0  0  0
  -34.2558    4.9088  -43.1443 C   0  0  0  0  0  0  0  0  0  0  0  0
  -36.3900    2.5211  -45.5270 X   0  0  0  0  0  0  0  0  0  0  0  0
  1  2  1  0  0  0  0
  2  3  1  0  0  0  0
  3  4  1  0  0  0  0
  4  5  1  0  0  0  0
  4  6  1  0  0  0  0
  4 10  1  0  0  0  0
  6  7  1  0  0  0  0
  7  8  1  0  0  0  0
  8  9  1  0  0  0  0
  8 11  1  0  0  0  0
  9 10  1  0  0  0  0
M  END
> <Index>
12446

> <PropertyFieldDistance>
nan

$$$$
10437820
BBcorina  12272117083D 1   1.00000     0.00000 
CORINA 4.3.0 0026  30.10.2019
  7  7  0  0  0  0  0  0  0  0999 V2000
  -39.1611    3.6083  -45.0939 C   0  0  0  0  0  0  0  0  0  0  0  0
  -38.4732    3.7110  -43.7311 C   0  0  0  0  0  0  0  0  0  0  0  0
  -37.1869    4.5279  -43.8695 C   0  0  0  0  0  0  0  0  0  0  0  0
  -36.4760    4.7969  -42.5309 C   0  0  0  0  0  0  0  0  0  0  0  0
  -35.1655    4.4909  -43.2783 C   0  0  0  0  0  0  0  0  0  0  0  0
  -36.0008    3.7171  -44.2231 N   0  0  0  0  0  0  0  0  0  0  0  0
  -35.5228    4.0030  -45.8397 X   0  0  0  0  0  0  0  0  0  0  0  0
  1  2  1  0  0  0  0
  2  3  1  0  0  0  0
  3  4  1  0  0  0  0
  3  6  1  0  0  0  0
  4  5  1  0  0  0  0
  5  6  1  0  0  0  0
  6  7  1  0  0  0  0
M  END
> <Index>
12468

> <PropertyFieldDistance>
nan

$$$$
10464172
BBcorina  12272117083D 1   1.00000     0.00000 
CORINA 4.3.0 0026  30.10.2019
 12 13  0  0  0  0  0  0  0  0999 V2000
  -35.6580    1.6270  -45.8636 C   0  0  0  0  0  0  0  0  0  0  0  0
  -36.6642    2.4224  -45.0723 C   0  0  0  0  0  0  0  0  0  0  0  0
  -37.8488    2.1921  -45.1924 O   0  0  0  0  0  0  0  0  0  0  0  0
  -36.2475    3.3895  -44.2313 N   0  0  0  0  0  0  0  0  0  0  0  0
  -37.1166    4.2358  -43.4043 C   0  0  0  0  0  0  0  0  0  0  0  0
  -36.2237    5.2420  -42.6565 C   0  0  0  0  0  0  0  0  0  0  0  0
  -36.7778    6.6623  -42.8716 C   0  0  0  0  0  0  0  0  0  0  0  0
  -36.1433    7.2131  -44.0813 N   0  0  0  0  0  0  0  0  0  0  0  0
  -35.2590    6.1825  -44.6614 C   0  0  0  0  0  0  0  0  0  0  0  0
  -34.8943    5.2258  -43.4774 C   0  0  0  0  0  0  0  0  0  0  0  0
  -34.8460    3.7666  -43.9862 C   0  0  0  0  0  0  0  0  0  0  0  0
  -37.3200    7.7193  -45.2141 X   0  0  0  0  0  0  0  0  0  0  0  0
  1  2  1  0  0  0  0
  2  3  2  0  0  0  0
  2  4  1  0  0  0  0
  4  5  1  0  0  0  0
  4 11  1  0  0  0  0
  5  6  1  0  0  0  0
  6  7  1  0  0  0  0
  6 10  1  0  0  0  0
  7  8  1  0  0  0  0
  8  9  1  0  0  0  0
  8 12  1  0  0  0  0
  9 10  1  0  0  0  0
 10 11  1  0  0  0  0
M  END
> <Index>
12481

> <PropertyFieldDistance>
nan

$$$$
10475952
BBcorina  12272117083D 1   1.00000     0.00000 
CORINA 4.3.0 0026  30.10.2019
 13 14  0  0  0  0  0  0  0  0999 V2000
  -34.9187    6.4440  -41.5487 C   0  0  0  0  0  0  0  0  0  0  0  0
  -35.2818    5.5288  -42.6389 N   0  0  0  0  0  0  0  0  0  0  0  0
  -36.5866    4.9013  -42.3872 C   0  0  0  0  0  0  0  0  0  0  0  0
  -36.9641    4.0193  -43.5796 C   0  0  0  0  0  0  0  0  0  0  0  0
  -35.9235    3.0013  -43.7813 N   0  0  0  0  0  0  0  0  0  0  0  0
  -36.2867    2.0862  -44.8716 C   0  0  0  0  0  0  0  0  0  0  0  0
  -36.2929    2.8495  -46.1975 C   0  0  0  0  0  0  0  0  0  0  0  0
  -36.8017    2.0180  -47.3889 C   0  0  0  0  0  0  0  0  0  0  0  0
  -35.6954    2.6277  -48.1595 N   0  0  0  0  0  0  0  0  0  0  0  0
  -34.9292    2.8621  -46.9115 C   0  0  0  0  0  0  0  0  0  0  0  0
  -34.6188    3.6287  -44.0331 C   0  0  0  0  0  0  0  0  0  0  0  0
  -34.2413    4.5109  -42.8406 C   0  0  0  0  0  0  0  0  0  0  0  0
  -34.9210    1.4643  -49.1448 X   0  0  0  0  0  0  0  0  0  0  0  0
  1  2  1  0  0  0  0
  2  3  1  0  0  0  0
  2 12  1  0  0  0  0
  3  4  1  0  0  0  0
  4  5  1  0  0  0  0
  5  6  1  0  0  0  0
  5 11  1  0  0  0  0
  6  7  1  0  0  0  0
  7  8  1  0  0  0  0
  7 10  1  0  0  0  0
  8  9  1  0  0  0  0
  9 10  1  0  0  0  0
  9 13  1  0  0  0  0
 11 12  1  0  0  0  0
M  END
> <Index>
12486

> <PropertyFieldDistance>
nan

$$$$
12054516
BBcorina  12272117083D 1   1.00000     0.00000 
CORINA 4.3.0 0026  30.10.2019
 10 11  0  0  0  0  0  0  0  0999 V2000
  -36.0172    3.5927  -44.4913 N   0  0  0  0  0  0  0  0  0  0  0  0
  -36.3934    2.1751  -44.5752 C   0  0  0  0  0  0  0  0  0  0  0  0
  -36.1059    1.6538  -45.9847 C   0  0  0  0  0  0  0  0  0  0  0  0
  -36.9980    2.3858  -46.9874 C   0  0  0  0  0  0  0  0  0  0  0  0
  -36.7923    1.7603  -48.3718 C   0  0  0  0  0  0  0  0  0  0  0  0
  -37.5011    0.4062  -48.4050 C   0  0  0  0  0  0  0  0  0  0  0  0
  -37.0195   -0.4755  -47.2634 C   0  0  0  0  0  0  0  0  0  0  0  0
  -35.5263   -0.6565  -47.0236 C   0  0  0  0  0  0  0  0  0  0  0  0
  -36.3801    0.1524  -46.0347 C   0  0  0  0  0  0  0  0  0  0  0  0
  -36.3230    4.2163  -42.9287 X   0  0  0  0  0  0  0  0  0  0  0  0
  1  2  1  0  0  0  0
  1 10  1  0  0  0  0
  2  3  1  0  0  0  0
  3  4  1  0  0  0  0
  3  9  1  0  0  0  0
  4  5  1  0  0  0  0
  5  6  1  0  0  0  0
  6  7  1  0  0  0  0
  7  8  1  0  0  0  0
  7  9  1  0  0  0  0
  8  9  1  0  0  0  0
M  END
> <Index>
12490

> <PropertyFieldDistance>
nan

$$$$
12301006
BBcorina  12272117083D 1   1.00000     0.00000 
CORINA 4.3.0 0026  30.10.2019
 15 15  0  0  0  0  0  0  0  0999 V2000
  -37.3074   -0.1527  -48.7954 C   0  0  0  0  0  0  0  0  0  0  0  0
  -36.3546    0.6416  -47.9397 C   0  0  0  0  0  0  0  0  0  0  0  0
  -35.1857    0.7265  -48.2521 O   0  0  0  0  0  0  0  0  0  0  0  0
  -36.8013    1.2576  -46.8273 N   0  0  0  0  0  0  0  0  0  0  0  0
  -35.8751    2.0299  -45.9955 C   0  0  0  0  0  0  0  0  0  0  0  0
  -36.6199    2.6122  -44.8219 C   0  0  0  0  0  0  0  0  0  0  0  0
  -37.8075    2.4027  -44.6931 O   0  0  0  0  0  0  0  0  0  0  0  0
  -35.9662    3.3656  -43.9156 N   0  0  0  0  0  0  0  0  0  0  0  0
  -36.7121    3.9090  -42.8013 C   0  0  0  0  0  0  0  0  0  0  0  0
  -37.2555    5.3108  -43.1763 C   0  0  0  0  0  0  0  0  0  0  0  0
  -36.1374    6.2686  -43.2746 C   0  0  0  0  0  0  0  0  0  0  0  0
  -35.1586    5.9493  -44.3135 N   0  0  0  0  0  0  0  0  0  0  0  0
  -34.1384    5.0610  -43.7978 C   0  0  0  0  0  0  0  0  0  0  0  0
  -34.5182    3.5954  -44.1007 C   0  0  0  0  0  0  0  0  0  0  0  0
  -34.4632    7.3721  -44.9585 X   0  0  0  0  0  0  0  0  0  0  0  0
  1  2  1  0  0  0  0
  2  3  2  0  0  0  0
  2  4  1  0  0  0  0
  4  5  1  0  0  0  0
  5  6  1  0  0  0  0
  6  7  2  0  0  0  0
  6  8  1  0  0  0  0
  8  9  1  0  0  0  0
  8 14  1  0  0  0  0
  9 10  1  0  0  0  0
 10 11  1  0  0  0  0
 11 12  1  0  0  0  0
 12 13  1  0  0  0  0
 12 15  1  0  0  0  0
 13 14  1  0  0  0  0
M  END
> <Index>
12499

> <PropertyFieldDistance>
nan

$$$$
11972844
BBcorina  12272117083D 1   1.00000     0.00000 
CORINA 4.3.0 0026  30.10.2019
 14 14  0  0  0  0  0  0  0  0999 V2000
  -37.4151    0.6048  -46.9227 C   0  0  0  0  0  0  0  0  0  0  0  0
  -36.2387    0.2903  -45.9963 C   0  0  0  0  0  0  0  0  0  0  0  0
  -35.2237   -0.5812  -46.7386 C   0  0  0  0  0  0  0  0  0  0  0  0
  -36.7473   -0.4576  -44.7623 C   0  0  0  0  0  0  0  0  0  0  0  0
  -35.5689    1.5954  -45.5616 C   0  0  0  0  0  0  0  0  0  0  0  0
  -36.5686    2.4540  -44.8304 C   0  0  0  0  0  0  0  0  0  0  0  0
  -37.7050    2.0606  -44.6726 O   0  0  0  0  0  0  0  0  0  0  0  0
  -36.1984    3.6564  -44.3471 N   0  0  0  0  0  0  0  0  0  0  0  0
  -37.1583    4.5100  -43.6306 C   0  0  0  0  0  0  0  0  0  0  0  0
  -36.5301    4.9379  -42.3000 C   0  0  0  0  0  0  0  0  0  0  0  0
  -35.2212    5.5539  -42.5557 N   0  0  0  0  0  0  0  0  0  0  0  0
  -34.2878    4.5919  -43.1565 C   0  0  0  0  0  0  0  0  0  0  0  0
  -34.8224    4.1471  -44.5169 C   0  0  0  0  0  0  0  0  0  0  0  0
  -34.5707    6.2271  -41.1247 X   0  0  0  0  0  0  0  0  0  0  0  0
  1  2  1  0  0  0  0
  2  3  1  0  0  0  0
  2  4  1  0  0  0  0
  2  5  1  0  0  0  0
  5  6  1  0  0  0  0
  6  7  2  0  0  0  0
  6  8  1  0  0  0  0
  8  9  1  0  0  0  0
  8 13  1  0  0  0  0
  9 10  1  0  0  0  0
 10 11  1  0  0  0  0
 11 12  1  0  0  0  0
 11 14  1  0  0  0  0
 12 13  1  0  0  0  0
M  END
> <Index>
12502

> <PropertyFieldDistance>
nan

$$$$
12642030
BBcorina  12272117083D 1   1.00000     0.00000 
CORINA 4.3.0 0026  30.10.2019
 14 14  0  0  0  0  0  0  0  0999 V2000
  -37.8857    2.1627  -47.4727 C   0  0  0  0  0  0  0  0  0  0  0  0
  -36.8424    1.2233  -46.8642 C   0  0  0  0  0  0  0  0  0  0  0  0
  -36.0649    0.5303  -47.9849 C   0  0  0  0  0  0  0  0  0  0  0  0
  -35.8751    2.0299  -45.9955 C   0  0  0  0  0  0  0  0  0  0  0  0
  -36.6199    2.6122  -44.8219 C   0  0  0  0  0  0  0  0  0  0  0  0
  -37.8075    2.4028  -44.6931 O   0  0  0  0  0  0  0  0  0  0  0  0
  -35.9663    3.3657  -43.9155 N   0  0  0  0  0  0  0  0  0  0  0  0
  -36.7121    3.9090  -42.8013 C   0  0  0  0  0  0  0  0  0  0  0  0
  -37.2554    5.3108  -43.1763 C   0  0  0  0  0  0  0  0  0  0  0  0
  -36.1375    6.2686  -43.2747 C   0  0  0  0  0  0  0  0  0  0  0  0
  -35.1586    5.9492  -44.3136 N   0  0  0  0  0  0  0  0  0  0  0  0
  -34.1384    5.0610  -43.7977 C   0  0  0  0  0  0  0  0  0  0  0  0
  -34.5182    3.5954  -44.1007 C   0  0  0  0  0  0  0  0  0  0  0  0
  -34.4633    7.3721  -44.9585 X   0  0  0  0  0  0  0  0  0  0  0  0
  1  2  1  0  0  0  0
  2  3  1  0  0  0  0
  2  4  1  0  0  0  0
  4  5  1  0  0  0  0
  5  6  2  0  0  0  0
  5  7  1  0  0  0  0
  7  8  1  0  0  0  0
  7 13  1  0  0  0  0
  8  9  1  0  0  0  0
  9 10  1  0  0  0  0
 10 11  1  0  0  0  0
 11 12  1  0  0  0  0
 11 14  1  0  0  0  0
 12 13  1  0  0  0  0
M  END
> <Index>
12504

> <PropertyFieldDistance>
nan

$$$$
12131454
BBcorina  12272117083D 1   1.00000     0.00000 
CORINA 4.3.0 0026  30.10.2019
 14 14  0  0  0  0  0  0  0  0999 V2000
  -33.7317   -0.0742  -45.0782 C   0  0  0  0  0  0  0  0  0  0  0  0
  -34.8528    0.7458  -44.4365 C   0  0  0  0  0  0  0  0  0  0  0  0
  -35.5556    1.5776  -45.5111 C   0  0  0  0  0  0  0  0  0  0  0  0
  -36.2532    0.6449  -46.5030 C   0  0  0  0  0  0  0  0  0  0  0  0
  -36.8369    1.4680  -47.6532 C   0  0  0  0  0  0  0  0  0  0  0  0
  -36.5770    2.4761  -44.8627 C   0  0  0  0  0  0  0  0  0  0  0  0
  -37.7355    2.1245  -44.7911 O   0  0  0  0  0  0  0  0  0  0  0  0
  -36.2031    3.6705  -44.3624 N   0  0  0  0  0  0  0  0  0  0  0  0
  -37.1596    4.5157  -43.6316 C   0  0  0  0  0  0  0  0  0  0  0  0
  -36.5280    4.9226  -42.2960 C   0  0  0  0  0  0  0  0  0  0  0  0
  -35.2182    5.5393  -42.5452 N   0  0  0  0  0  0  0  0  0  0  0  0
  -34.2881    4.5842  -43.1620 C   0  0  0  0  0  0  0  0  0  0  0  0
  -34.8263    4.1606  -44.5277 C   0  0  0  0  0  0  0  0  0  0  0  0
  -34.5634    6.1899  -41.1057 X   0  0  0  0  0  0  0  0  0  0  0  0
  1  2  1  0  0  0  0
  2  3  1  0  0  0  0
  3  4  1  0  0  0  0
  3  6  1  0  0  0  0
  4  5  1  0  0  0  0
  6  7  2  0  0  0  0
  6  8  1  0  0  0  0
  8  9  1  0  0  0  0
  8 13  1  0  0  0  0
  9 10  1  0  0  0  0
 10 11  1  0  0  0  0
 11 12  1  0  0  0  0
 11 14  1  0  0  0  0
 12 13  1  0  0  0  0
M  END
> <Index>
12506

> <PropertyFieldDistance>
nan

$$$$
12206154
BBcorina  12272117083D 1   1.00000     0.00000 
CORINA 4.3.0 0026  30.10.2019
 14 14  0  0  0  0  0  0  0  0999 V2000
  -35.3721    3.8601  -50.9054 C   0  0  0  0  0  0  0  0  0  0  0  0
  -35.9035    3.1173  -49.8063 O   0  0  0  0  0  0  0  0  0  0  0  0
  -37.0838    3.6867  -49.2365 C   0  0  0  0  0  0  0  0  0  0  0  0
  -37.5618    2.8134  -48.0747 C   0  0  0  0  0  0  0  0  0  0  0  0
  -36.5879    2.8368  -47.0292 O   0  0  0  0  0  0  0  0  0  0  0  0
  -36.9388    2.0483  -45.8903 C   0  0  0  0  0  0  0  0  0  0  0  0
  -35.8303    2.1472  -44.8403 C   0  0  0  0  0  0  0  0  0  0  0  0
  -35.7401    3.5298  -44.3521 N   0  0  0  0  0  0  0  0  0  0  0  0
  -36.8411    3.8349  -43.4280 C   0  0  0  0  0  0  0  0  0  0  0  0
  -36.7569    5.3035  -43.0054 C   0  0  0  0  0  0  0  0  0  0  0  0
  -35.4555    5.5539  -42.3706 N   0  0  0  0  0  0  0  0  0  0  0  0
  -34.3544    5.2488  -43.2948 C   0  0  0  0  0  0  0  0  0  0  0  0
  -34.4386    3.7802  -43.7173 C   0  0  0  0  0  0  0  0  0  0  0  0
  -35.3504    7.1633  -41.8023 X   0  0  0  0  0  0  0  0  0  0  0  0
  1  2  1  0  0  0  0
  2  3  1  0  0  0  0
  3  4  1  0  0  0  0
  4  5  1  0  0  0  0
  5  6  1  0  0  0  0
  6  7  1  0  0  0  0
  7  8  1  0  0  0  0
  8  9  1  0  0  0  0
  8 13  1  0  0  0  0
  9 10  1  0  0  0  0
 10 11  1  0  0  0  0
 11 12  1  0  0  0  0
 11 14  1  0  0  0  0
 12 13  1  0  0  0  0
M  END
> <Index>
12518

> <PropertyFieldDistance>
nan

$$$$
17510114
BBcorina  12272117083D 1   1.00000     0.00000 
CORINA 4.3.0 0026  30.10.2019
 14 15  0  0  0  0  0  0  0  0999 V2000
  -35.2210    5.5523  -42.5540 N   0  0  0  0  0  0  0  0  0  0  0  0
  -36.5308    4.9375  -42.3002 C   0  0  0  0  0  0  0  0  0  0  0  0
  -37.1580    4.5115  -43.6319 C   0  0  0  0  0  0  0  0  0  0  0  0
  -36.1984    3.6575  -44.3483 N   0  0  0  0  0  0  0  0  0  0  0  0
  -34.8232    4.1496  -44.5216 C   0  0  0  0  0  0  0  0  0  0  0  0
  -34.2879    4.5898  -43.1549 C   0  0  0  0  0  0  0  0  0  0  0  0
  -36.5680    2.4537  -44.8284 C   0  0  0  0  0  0  0  0  0  0  0  0
  -37.7049    2.0615  -44.6721 O   0  0  0  0  0  0  0  0  0  0  0  0
  -35.5685    1.5948  -45.5594 C   0  0  0  0  0  0  0  0  0  0  0  0
  -36.2302    0.2789  -46.0049 C   0  0  0  0  0  0  0  0  0  0  0  0
  -36.1387    0.2387  -47.5443 C   0  0  0  0  0  0  0  0  0  0  0  0
  -34.9437    1.1658  -47.8782 C   0  0  0  0  0  0  0  0  0  0  0  0
  -35.0980    2.3083  -46.8437 C   0  0  0  0  0  0  0  0  0  0  0  0
  -34.5712    6.2233  -41.1216 X   0  0  0  0  0  0  0  0  0  0  0  0
  1  2  1  0  0  0  0
  1  6  1  0  0  0  0
  1 14  1  0  0  0  0
  2  3  1  0  0  0  0
  3  4  1  0  0  0  0
  4  5  1  0  0  0  0
  4  7  1  0  0  0  0
  5  6  1  0  0  0  0
  7  8  2  0  0  0  0
  7  9  1  0  0  0  0
  9 10  1  0  0  0  0
  9 13  1  0  0  0  0
 10 11  1  0  0  0  0
 11 12  1  0  0  0  0
 12 13  1  0  0  0  0
M  END
> <Index>
12521

> <PropertyFieldDistance>
nan

$$$$
10547146
BBcorina  12272117083D 1   1.00000     0.00000 
CORINA 4.3.0 0026  30.10.2019
  7  7  0  0  0  0  0  0  0  0999 V2000
  -37.4256    4.7833  -41.3162 C   0  0  0  0  0  0  0  0  0  0  0  0
  -36.4846    4.8057  -42.5225 C   0  0  0  0  0  0  0  0  0  0  0  0
  -37.1759    4.5246  -43.8641 C   0  0  0  0  0  0  0  0  0  0  0  0
  -36.0032    3.7116  -44.2370 N   0  0  0  0  0  0  0  0  0  0  0  0
  -35.7852    3.4674  -42.7989 C   0  0  0  0  0  0  0  0  0  0  0  0
  -34.3084    3.4575  -42.3994 C   0  0  0  0  0  0  0  0  0  0  0  0
  -36.4810    2.2776  -45.0366 X   0  0  0  0  0  0  0  0  0  0  0  0
  1  2  1  0  0  0  0
  2  3  1  0  0  0  0
  2  5  1  0  0  0  0
  3  4  1  0  0  0  0
  4  5  1  0  0  0  0
  4  7  1  0  0  0  0
  5  6  1  0  0  0  0
M  END
> <Index>
12528

> <PropertyFieldDistance>
nan

$$$$
10566036
BBcorina  12272117083D 1   1.00000     0.00000 
CORINA 4.3.0 0026  30.10.2019
 12 12  0  0  0  0  0  0  0  0999 V2000
  -36.3772    3.7509  -41.1851 C   0  0  0  0  0  0  0  0  0  0  0  0
  -36.5467    4.8531  -42.2327 C   0  0  0  0  0  0  0  0  0  0  0  0
  -37.0103    4.2348  -43.5539 C   0  0  0  0  0  0  0  0  0  0  0  0
  -38.3275    3.4883  -43.3336 C   0  0  0  0  0  0  0  0  0  0  0  0
  -39.3675    4.4410  -42.9230 N   0  0  0  0  0  0  0  0  0  0  0  0
  -35.9890    3.2949  -44.0369 N   0  0  0  0  0  0  0  0  0  0  0  0
  -36.4311    2.6232  -45.2663 C   0  0  0  0  0  0  0  0  0  0  0  0
  -34.7043    3.9779  -44.2429 C   0  0  0  0  0  0  0  0  0  0  0  0
  -34.2406    4.5962  -42.9218 C   0  0  0  0  0  0  0  0  0  0  0  0
  -35.2619    5.5360  -42.4388 N   0  0  0  0  0  0  0  0  0  0  0  0
  -34.8198    6.2078  -41.2095 C   0  0  0  0  0  0  0  0  0  0  0  0
  -40.8197    3.6298  -42.5264 X   0  0  0  0  0  0  0  0  0  0  0  0
  1  2  1  0  0  0  0
  2  3  1  0  0  0  0
  2 10  1  0  0  0  0
  3  4  1  0  0  0  0
  3  6  1  0  0  0  0
  4  5  1  0  0  0  0
  5 12  1  0  0  0  0
  6  7  1  0  0  0  0
  6  8  1  0  0  0  0
  8  9  1  0  0  0  0
  9 10  1  0  0  0  0
 10 11  1  0  0  0  0
M  END
> <Index>
12541

> <PropertyFieldDistance>
nan

$$$$
10638352
BBcorina  12272117083D 1   1.00000     0.00000 
CORINA 4.3.0 0026  30.10.2019
 14 15  0  0  0  0  0  0  0  0999 V2000
  -36.3354    2.3075  -44.8785 C   0  0  0  0  0  0  0  0  0  0  0  0
  -35.9453    3.3419  -43.9111 N   0  0  0  0  0  0  0  0  0  0  0  0
  -37.0436    4.2897  -43.6828 C   0  0  0  0  0  0  0  0  0  0  0  0
  -36.6556    5.2624  -42.5666 C   0  0  0  0  0  0  0  0  0  0  0  0
  -35.3835    6.0123  -42.9701 C   0  0  0  0  0  0  0  0  0  0  0  0
  -35.6542    6.8339  -44.2316 C   0  0  0  0  0  0  0  0  0  0  0  0
  -34.3823    7.5820  -44.6359 C   0  0  0  0  0  0  0  0  0  0  0  0
  -33.9569    8.5147  -43.5002 C   0  0  0  0  0  0  0  0  0  0  0  0
  -33.6850    7.6920  -42.2391 C   0  0  0  0  0  0  0  0  0  0  0  0
  -34.9566    6.9434  -41.8344 C   0  0  0  0  0  0  0  0  0  0  0  0
  -32.7361    9.2337  -43.8883 N   0  0  0  0  0  0  0  0  0  0  0  0
  -34.2689    5.0008  -43.2489 C   0  0  0  0  0  0  0  0  0  0  0  0
  -34.7259    4.0354  -44.3451 C   0  0  0  0  0  0  0  0  0  0  0  0
  -33.1128   10.6477  -44.7731 X   0  0  0  0  0  0  0  0  0  0  0  0
  1  2  1  0  0  0  0
  2  3  1  0  0  0  0
  2 13  1  0  0  0  0
  3  4  1  0  0  0  0
  4  5  1  0  0  0  0
  5  6  1  0  0  0  0
  5 10  1  0  0  0  0
  5 12  1  0  0  0  0
  6  7  1  0  0  0  0
  7  8  1  0  0  0  0
  8  9  1  0  0  0  0
  8 11  1  0  0  0  0
  9 10  1  0  0  0  0
 11 14  1  0  0  0  0
 12 13  1  0  0  0  0
M  END
> <Index>
12545

> <PropertyFieldDistance>
nan

$$$$
17065692
BBcorina  12272117083D 1   1.00000     0.00000 
CORINA 4.3.0 0026  30.10.2019
 14 14  0  0  0  0  0  0  0  0999 V2000
  -38.1110    1.9186  -46.6630 C   0  0  0  0  0  0  0  0  0  0  0  0
  -37.6853    2.5699  -45.4217 N   0  0  0  0  0  0  0  0  0  0  0  0
  -36.3727    2.7083  -45.1492 C   0  0  0  0  0  0  0  0  0  0  0  0
  -35.5430    2.2111  -45.8861 O   0  0  0  0  0  0  0  0  0  0  0  0
  -35.9796    3.3977  -44.0599 N   0  0  0  0  0  0  0  0  0  0  0  0
  -36.9676    3.9017  -43.0963 C   0  0  0  0  0  0  0  0  0  0  0  0
  -36.7443    5.4047  -42.9016 C   0  0  0  0  0  0  0  0  0  0  0  0
  -35.2890    5.6519  -42.4974 C   0  0  0  0  0  0  0  0  0  0  0  0
  -34.3555    5.1654  -43.6124 C   0  0  0  0  0  0  0  0  0  0  0  0
  -34.5551    3.6599  -43.8137 C   0  0  0  0  0  0  0  0  0  0  0  0
  -33.7319    3.1894  -45.0145 C   0  0  0  0  0  0  0  0  0  0  0  0
  -32.2534    3.4998  -44.7724 C   0  0  0  0  0  0  0  0  0  0  0  0
  -31.4779    3.1546  -45.9713 N   0  0  0  0  0  0  0  0  0  0  0  0
  -29.8161    3.4868  -45.7429 X   0  0  0  0  0  0  0  0  0  0  0  0
  1  2  1  0  0  0  0
  2  3  1  0  0  0  0
  3  4  2  0  0  0  0
  3  5  1  0  0  0  0
  5  6  1  0  0  0  0
  5 10  1  0  0  0  0
  6  7  1  0  0  0  0
  7  8  1  0  0  0  0
  8  9  1  0  0  0  0
  9 10  1  0  0  0  0
 10 11  1  0  0  0  0
 11 12  1  0  0  0  0
 12 13  1  0  0  0  0
 13 14  1  0  0  0  0
M  END
> <Index>
12552

> <PropertyFieldDistance>
nan

$$$$
10686094
BBcorina  12272117083D 1   1.00000     0.00000 
CORINA 4.3.0 0026  30.10.2019
  9  9  0  0  0  0  0  0  0  0999 V2000
  -36.0172    3.5888  -44.4950 N   0  0  0  0  0  0  0  0  0  0  0  0
  -36.3920    2.1710  -44.5833 C   0  0  0  0  0  0  0  0  0  0  0  0
  -36.1073    1.6618  -45.9729 C   0  0  0  0  0  0  0  0  0  0  0  0
  -34.9734    1.0686  -46.2010 C   0  0  0  0  0  0  0  0  0  0  0  0
  -34.5877    0.5395  -47.5531 C   0  0  0  0  0  0  0  0  0  0  0  0
  -35.7391    0.4564  -48.3956 O   0  0  0  0  0  0  0  0  0  0  0  0
  -36.5033    1.6684  -48.4211 C   0  0  0  0  0  0  0  0  0  0  0  0
  -37.1432    1.8649  -47.0439 C   0  0  0  0  0  0  0  0  0  0  0  0
  -36.3248    4.2076  -42.9309 X   0  0  0  0  0  0  0  0  0  0  0  0
  1  2  1  0  0  0  0
  1  9  1  0  0  0  0
  2  3  1  0  0  0  0
  3  4  2  0  0  0  0
  3  8  1  0  0  0  0
  4  5  1  0  0  0  0
  5  6  1  0  0  0  0
  6  7  1  0  0  0  0
  7  8  1  0  0  0  0
M  END
> <Index>
12592

> <PropertyFieldDistance>
nan

$$$$
10684486
BBcorina  12272117083D 1   1.00000     0.00000 
CORINA 4.3.0 0026  30.10.2019
 14 15  0  0  0  0  0  0  0  0999 V2000
  -34.4583    5.3676  -41.5519 N   0  0  0  0  0  0  0  0  0  0  0  0
  -35.1479    5.2344  -42.8422 C   0  0  0  0  0  0  0  0  0  0  0  0
  -36.6486    4.8983  -42.6382 C   0  0  0  0  0  0  0  0  0  0  0  0
  -37.0183    4.1548  -43.9390 C   0  0  0  0  0  0  0  0  0  0  0  0
  -35.7666    3.6248  -44.5101 N   0  0  0  0  0  0  0  0  0  0  0  0
  -35.8460    2.1695  -44.6929 C   0  0  0  0  0  0  0  0  0  0  0  0
  -36.8271    1.8502  -45.8227 C   0  0  0  0  0  0  0  0  0  0  0  0
  -37.0043    0.3266  -45.9698 C   0  0  0  0  0  0  0  0  0  0  0  0
  -38.4348    0.1129  -45.7018 N   0  0  0  0  0  0  0  0  0  0  0  0
  -39.0086    1.2954  -45.4414 C   0  0  0  0  0  0  0  0  0  0  0  0
  -40.1898    1.4168  -45.1833 O   0  0  0  0  0  0  0  0  0  0  0  0
  -38.1622    2.3301  -45.4906 O   0  0  0  0  0  0  0  0  0  0  0  0
  -34.6493    3.9858  -43.6115 C   0  0  0  0  0  0  0  0  0  0  0  0
  -34.4950    3.8955  -40.6827 X   0  0  0  0  0  0  0  0  0  0  0  0
  1  2  1  0  0  0  0
  1 14  1  0  0  0  0
  2  3  1  0  0  0  0
  2 13  1  0  0  0  0
  3  4  1  0  0  0  0
  4  5  1  0  0  0  0
  5  6  1  0  0  0  0
  5 13  1  0  0  0  0
  6  7  1  0  0  0  0
  7  8  1  0  0  0  0
  7 12  1  0  0  0  0
  8  9  1  0  0  0  0
  9 10  1  0  0  0  0
 10 11  2  0  0  0  0
 10 12  1  0  0  0  0
M  END
> <Index>
12593

> <PropertyFieldDistance>
nan

$$$$
10689946
BBcorina  12272117083D 1   1.00000     0.00000 
CORINA 4.3.0 0026  30.10.2019
  8  8  0  0  0  0  0  0  0  0999 V2000
  -36.0172    3.5927  -44.4913 N   0  0  0  0  0  0  0  0  0  0  0  0
  -36.3933    2.1751  -44.5753 C   0  0  0  0  0  0  0  0  0  0  0  0
  -36.1059    1.6538  -45.9846 C   0  0  0  0  0  0  0  0  0  0  0  0
  -36.6039    0.1985  -46.1165 C   0  0  0  0  0  0  0  0  0  0  0  0
  -35.4836   -0.4573  -46.9691 C   0  0  0  0  0  0  0  0  0  0  0  0
  -34.2380    0.3093  -46.4576 C   0  0  0  0  0  0  0  0  0  0  0  0
  -34.6935    1.6513  -46.2232 O   0  0  0  0  0  0  0  0  0  0  0  0
  -36.3230    4.2163  -42.9287 X   0  0  0  0  0  0  0  0  0  0  0  0
  1  2  1  0  0  0  0
  1  8  1  0  0  0  0
  2  3  1  0  0  0  0
  3  4  1  0  0  0  0
  3  7  1  0  0  0  0
  4  5  1  0  0  0  0
  5  6  1  0  0  0  0
  6  7  1  0  0  0  0
M  END
> <Index>
12598

> <PropertyFieldDistance>
nan

$$$$
12059852
BBcorina  12272117083D 1   1.00000     0.00000 
CORINA 4.3.0 0026  30.10.2019
 13 14  0  0  0  0  0  0  0  0999 V2000
  -35.9482    3.4661  -44.1723 N   0  0  0  0  0  0  0  0  0  0  0  0
  -37.0292    4.3868  -43.7978 C   0  0  0  0  0  0  0  0  0  0  0  0
  -36.6588    5.1098  -42.5008 C   0  0  0  0  0  0  0  0  0  0  0  0
  -35.3535    5.8831  -42.7083 C   0  0  0  0  0  0  0  0  0  0  0  0
  -34.2549    4.9095  -43.1439 C   0  0  0  0  0  0  0  0  0  0  0  0
  -34.6961    4.1914  -44.4229 C   0  0  0  0  0  0  0  0  0  0  0  0
  -34.9465    6.5601  -41.3980 C   0  0  0  0  0  0  0  0  0  0  0  0
  -33.6401    7.3308  -41.6057 C   0  0  0  0  0  0  0  0  0  0  0  0
  -33.2713    8.0545  -40.3071 C   0  0  0  0  0  0  0  0  0  0  0  0
  -34.4288    8.9715  -39.9001 C   0  0  0  0  0  0  0  0  0  0  0  0
  -35.7046    8.1375  -39.7582 C   0  0  0  0  0  0  0  0  0  0  0  0
  -35.9735    7.4667  -40.9910 O   0  0  0  0  0  0  0  0  0  0  0  0
  -36.3903    2.5207  -45.5269 X   0  0  0  0  0  0  0  0  0  0  0  0
  1  2  1  0  0  0  0
  1  6  1  0  0  0  0
  1 13  1  0  0  0  0
  2  3  1  0  0  0  0
  3  4  1  0  0  0  0
  4  5  1  0  0  0  0
  4  7  1  0  0  0  0
  5  6  1  0  0  0  0
  7  8  1  0  0  0  0
  7 12  1  0  0  0  0
  8  9  1  0  0  0  0
  9 10  1  0  0  0  0
 10 11  1  0  0  0  0
 11 12  1  0  0  0  0
M  END
> <Index>
12599

> <PropertyFieldDistance>
nan

$$$$
10742718
BBcorina  12272117083D 1   1.00000     0.00000 
CORINA 4.3.0 0026  30.10.2019
 11 11  0  0  0  0  0  0  0  0999 V2000
  -35.4987    7.8348  -41.3241 C   0  0  0  0  0  0  0  0  0  0  0  0
  -34.9735    6.5156  -41.4841 O   0  0  0  0  0  0  0  0  0  0  0  0
  -35.3535    5.8832  -42.7080 C   0  0  0  0  0  0  0  0  0  0  0  0
  -36.6587    5.1099  -42.5007 C   0  0  0  0  0  0  0  0  0  0  0  0
  -37.0290    4.3869  -43.7977 C   0  0  0  0  0  0  0  0  0  0  0  0
  -35.9480    3.4664  -44.1723 N   0  0  0  0  0  0  0  0  0  0  0  0
  -34.6958    4.1916  -44.4226 C   0  0  0  0  0  0  0  0  0  0  0  0
  -34.2558    4.9088  -43.1443 C   0  0  0  0  0  0  0  0  0  0  0  0
  -32.9631    5.6821  -43.4116 C   0  0  0  0  0  0  0  0  0  0  0  0
  -34.0169    3.8797  -42.0377 C   0  0  0  0  0  0  0  0  0  0  0  0
  -36.3899    2.5209  -45.5269 X   0  0  0  0  0  0  0  0  0  0  0  0
  1  2  1  0  0  0  0
  2  3  1  0  0  0  0
  3  4  1  0  0  0  0
  3  8  1  0  0  0  0
  4  5  1  0  0  0  0
  5  6  1  0  0  0  0
  6  7  1  0  0  0  0
  6 11  1  0  0  0  0
  7  8  1  0  0  0  0
  8  9  1  0  0  0  0
  8 10  1  0  0  0  0
M  END
> <Index>
12611

> <PropertyFieldDistance>
nan

$$$$
12643712
BBcorina  12272117083D 1   1.00000     0.00000 
CORINA 4.3.0 0026  30.10.2019
 11 12  0  0  0  0  0  0  0  0999 V2000
  -32.9547    4.3495  -42.5881 N   0  0  0  0  0  0  0  0  0  0  0  0
  -34.1953    4.9261  -43.1236 C   0  0  0  0  0  0  0  0  0  0  0  0
  -35.2737    4.9385  -42.0323 C   0  0  0  0  0  0  0  0  0  0  0  0
  -36.6295    5.2601  -42.6678 C   0  0  0  0  0  0  0  0  0  0  0  0
  -37.0811    4.0816  -43.5371 C   0  0  0  0  0  0  0  0  0  0  0  0
  -35.9860    3.7133  -44.4393 N   0  0  0  0  0  0  0  0  0  0  0  0
  -36.0633    2.9421  -45.6009 N   0  0  0  0  0  0  0  0  0  0  0  0
  -34.8601    2.8533  -46.1121 C   0  0  0  0  0  0  0  0  0  0  0  0
  -33.9798    3.5663  -45.2884 C   0  0  0  0  0  0  0  0  0  0  0  0
  -34.6955    4.0825  -44.2700 C   0  0  0  0  0  0  0  0  0  0  0  0
  -31.9925    5.5507  -41.8430 X   0  0  0  0  0  0  0  0  0  0  0  0
  1  2  1  0  0  0  0
  1 11  1  0  0  0  0
  2  3  1  0  0  0  0
  2 10  1  0  0  0  0
  3  4  1  0  0  0  0
  4  5  1  0  0  0  0
  5  6  1  0  0  0  0
  6  7  1  0  0  0  0
  6 10  1  0  0  0  0
  7  8  2  0  0  0  0
  8  9  1  0  0  0  0
  9 10  2  0  0  0  0
M  END
> <Index>
12631

> <PropertyFieldDistance>
nan

$$$$
10738686
BBcorina  12272117083D 1   1.00000     0.00000 
CORINA 4.3.0 0026  30.10.2019
 12 13  0  0  0  0  0  0  0  0999 V2000
  -36.0047    3.6175  -44.3781 N   0  0  0  0  0  0  0  0  0  0  0  0
  -37.0057    4.4936  -43.7533 C   0  0  0  0  0  0  0  0  0  0  0  0
  -36.5671    4.8279  -42.3257 C   0  0  0  0  0  0  0  0  0  0  0  0
  -35.2500    5.4789  -42.3604 N   0  0  0  0  0  0  0  0  0  0  0  0
  -34.2490    4.6029  -42.9851 C   0  0  0  0  0  0  0  0  0  0  0  0
  -34.6877    4.2685  -44.4128 C   0  0  0  0  0  0  0  0  0  0  0  0
  -34.8520    5.8605  -41.0919 C   0  0  0  0  0  0  0  0  0  0  0  0
  -33.7320    6.4617  -40.7503 N   0  0  0  0  0  0  0  0  0  0  0  0
  -33.5700    6.7315  -39.4757 C   0  0  0  0  0  0  0  0  0  0  0  0
  -34.5157    6.3791  -38.6543 N   0  0  0  0  0  0  0  0  0  0  0  0
  -35.7112    5.6455  -39.6139 S   0  0  0  0  0  0  0  0  0  0  0  0
  -36.4967    3.1458  -45.9463 X   0  0  0  0  0  0  0  0  0  0  0  0
  1  2  1  0  0  0  0
  1  6  1  0  0  0  0
  1 12  1  0  0  0  0
  2  3  1  0  0  0  0
  3  4  1  0  0  0  0
  4  5  1  0  0  0  0
  4  7  1  0  0  0  0
  5  6  1  0  0  0  0
  7  8  2  0  0  0  0
  7 11  1  0  0  0  0
  8  9  1  0  0  0  0
  9 10  2  0  0  0  0
 10 11  1  0  0  0  0
M  END
> <Index>
12632

> <PropertyFieldDistance>
nan

$$$$
10738688
BBcorina  12272117083D 1   1.00000     0.00000 
CORINA 4.3.0 0026  30.10.2019
 13 13  0  0  0  0  0  0  0  0999 V2000
  -35.6591    9.6450  -39.6273 C   0  0  0  0  0  0  0  0  0  0  0  0
  -35.1097    8.3327  -39.9767 N   0  0  0  0  0  0  0  0  0  0  0  0
  -34.1699    7.6673  -39.0710 C   0  0  0  0  0  0  0  0  0  0  0  0
  -35.4687    7.7375  -41.1314 C   0  0  0  0  0  0  0  0  0  0  0  0
  -36.2487    8.2897  -41.8831 O   0  0  0  0  0  0  0  0  0  0  0  0
  -34.9633    6.5301  -41.4528 N   0  0  0  0  0  0  0  0  0  0  0  0
  -35.3535    5.8833  -42.7079 C   0  0  0  0  0  0  0  0  0  0  0  0
  -36.6585    5.1099  -42.5008 C   0  0  0  0  0  0  0  0  0  0  0  0
  -37.0291    4.3869  -43.7977 C   0  0  0  0  0  0  0  0  0  0  0  0
  -35.9480    3.4664  -44.1723 N   0  0  0  0  0  0  0  0  0  0  0  0
  -34.6958    4.1916  -44.4226 C   0  0  0  0  0  0  0  0  0  0  0  0
  -34.2559    4.9088  -43.1442 C   0  0  0  0  0  0  0  0  0  0  0  0
  -36.3899    2.5211  -45.5270 X   0  0  0  0  0  0  0  0  0  0  0  0
  1  2  1  0  0  0  0
  2  3  1  0  0  0  0
  2  4  1  0  0  0  0
  4  5  2  0  0  0  0
  4  6  1  0  0  0  0
  6  7  1  0  0  0  0
  7  8  1  0  0  0  0
  7 12  1  0  0  0  0
  8  9  1  0  0  0  0
  9 10  1  0  0  0  0
 10 11  1  0  0  0  0
 10 13  1  0  0  0  0
 11 12  1  0  0  0  0
M  END
> <Index>
12635

> <PropertyFieldDistance>
nan

$$$$
10742478
BBcorina  12272117083D 1   1.00000     0.00000 
CORINA 4.3.0 0026  30.10.2019
 18 19  0  0  0  0  0  0  0  0999 V2000
  -36.9108    2.8098  -46.1909 C   0  0  0  0  0  0  0  0  0  0  0  0
  -35.6632    2.9273  -45.3537 C   0  0  0  0  0  0  0  0  0  0  0  0
  -34.5721    2.8361  -45.8753 O   0  0  0  0  0  0  0  0  0  0  0  0
  -35.7600    3.1337  -44.0253 N   0  0  0  0  0  0  0  0  0  0  0  0
  -37.0773    3.2370  -43.4359 C   0  0  0  0  0  0  0  0  0  0  0  0
  -37.5256    4.7202  -43.4264 C   0  0  0  0  0  0  0  0  0  0  0  0
  -36.7118    5.4804  -42.4586 C   0  0  0  0  0  0  0  0  0  0  0  0
  -35.2827    5.5165  -42.7684 N   0  0  0  0  0  0  0  0  0  0  0  0
  -34.6763    6.7734  -42.3098 C   0  0  0  0  0  0  0  0  0  0  0  0
  -33.2508    6.8806  -42.8551 C   0  0  0  0  0  0  0  0  0  0  0  0
  -32.5765    8.1298  -42.2814 C   0  0  0  0  0  0  0  0  0  0  0  0
  -31.1727    8.2623  -42.8782 C   0  0  0  0  0  0  0  0  0  0  0  0
  -31.2763    8.3273  -44.4037 C   0  0  0  0  0  0  0  0  0  0  0  0
  -31.9274    7.1097  -44.9037 N   0  0  0  0  0  0  0  0  0  0  0  0
  -33.2942    6.9857  -44.3813 C   0  0  0  0  0  0  0  0  0  0  0  0
  -34.6067    4.3736  -42.1920 C   0  0  0  0  0  0  0  0  0  0  0  0
  -34.5162    3.2439  -43.2352 C   0  0  0  0  0  0  0  0  0  0  0  0
  -31.9186    7.0679  -46.6132 X   0  0  0  0  0  0  0  0  0  0  0  0
  1  2  1  0  0  0  0
  2  3  2  0  0  0  0
  2  4  1  0  0  0  0
  4  5  1  0  0  0  0
  4 17  1  0  0  0  0
  5  6  1  0  0  0  0
  6  7  1  0  0  0  0
  7  8  1  0  0  0  0
  8  9  1  0  0  0  0
  8 16  1  0  0  0  0
  9 10  1  0  0  0  0
 10 11  1  0  0  0  0
 10 15  1  0  0  0  0
 11 12  1  0  0  0  0
 12 13  1  0  0  0  0
 13 14  1  0  0  0  0
 14 15  1  0  0  0  0
 14 18  1  0  0  0  0
 16 17  1  0  0  0  0
M  END
> <Index>
12637

> <PropertyFieldDistance>
nan

$$$$
10740106
BBcorina  12272117083D 1   1.00000     0.00000 
CORINA 4.3.0 0026  30.10.2019
 12 13  0  0  0  0  0  0  0  0999 V2000
  -36.0173    3.5927  -44.4913 N   0  0  0  0  0  0  0  0  0  0  0  0
  -36.3933    2.1751  -44.5752 C   0  0  0  0  0  0  0  0  0  0  0  0
  -36.1059    1.6538  -45.9846 C   0  0  0  0  0  0  0  0  0  0  0  0
  -34.5966    1.6763  -46.2441 C   0  0  0  0  0  0  0  0  0  0  0  0
  -34.3123    1.1196  -47.6409 C   0  0  0  0  0  0  0  0  0  0  0  0
  -34.8056   -0.2201  -47.7293 O   0  0  0  0  0  0  0  0  0  0  0  0
  -36.2041   -0.3373  -47.4781 C   0  0  0  0  0  0  0  0  0  0  0  0
  -36.7657   -1.7352  -47.7673 C   0  0  0  0  0  0  0  0  0  0  0  0
  -37.0175   -1.2479  -49.2046 C   0  0  0  0  0  0  0  0  0  0  0  0
  -37.0792    0.1773  -48.6284 C   0  0  0  0  0  0  0  0  0  0  0  0
  -36.6120    0.2121  -46.1117 C   0  0  0  0  0  0  0  0  0  0  0  0
  -36.3230    4.2163  -42.9287 X   0  0  0  0  0  0  0  0  0  0  0  0
  1  2  1  0  0  0  0
  1 12  1  0  0  0  0
  2  3  1  0  0  0  0
  3  4  1  0  0  0  0
  3 11  1  0  0  0  0
  4  5  1  0  0  0  0
  5  6  1  0  0  0  0
  6  7  1  0  0  0  0
  7  8  1  0  0  0  0
  7 10  1  0  0  0  0
  7 11  1  0  0  0  0
  8  9  1  0  0  0  0
  9 10  1  0  0  0  0
M  END
> <Index>
12643

> <PropertyFieldDistance>
nan

$$$$
10738702
BBcorina  12272117083D 1   1.00000     0.00000 
CORINA 4.3.0 0026  30.10.2019
 14 15  0  0  0  0  0  0  0  0999 V2000
  -35.1040   -0.2687  -47.0036 F   0  0  0  0  0  0  0  0  0  0  0  0
  -35.9080    0.6947  -46.5032 C   0  0  0  0  0  0  0  0  0  0  0  0
  -35.4740    1.5005  -45.4640 C   0  0  0  0  0  0  0  0  0  0  0  0
  -36.3423    2.4777  -44.9778 C   0  0  0  0  0  0  0  0  0  0  0  0
  -37.5438    2.6066  -45.5342 N   0  0  0  0  0  0  0  0  0  0  0  0
  -37.9149    1.8224  -46.5258 C   0  0  0  0  0  0  0  0  0  0  0  0
  -37.1223    0.8855  -47.0055 N   0  0  0  0  0  0  0  0  0  0  0  0
  -35.9573    3.3052  -43.9351 N   0  0  0  0  0  0  0  0  0  0  0  0
  -37.0245    4.2570  -43.5964 C   0  0  0  0  0  0  0  0  0  0  0  0
  -36.5922    5.0968  -42.3923 C   0  0  0  0  0  0  0  0  0  0  0  0
  -35.3437    5.8024  -42.7132 N   0  0  0  0  0  0  0  0  0  0  0  0
  -34.2763    4.8507  -43.0520 C   0  0  0  0  0  0  0  0  0  0  0  0
  -34.7087    4.0107  -44.2562 C   0  0  0  0  0  0  0  0  0  0  0  0
  -34.8685    6.8236  -41.4266 X   0  0  0  0  0  0  0  0  0  0  0  0
  1  2  1  0  0  0  0
  2  3  2  0  0  0  0
  2  7  1  0  0  0  0
  3  4  1  0  0  0  0
  4  5  2  0  0  0  0
  4  8  1  0  0  0  0
  5  6  1  0  0  0  0
  6  7  2  0  0  0  0
  8  9  1  0  0  0  0
  8 13  1  0  0  0  0
  9 10  1  0  0  0  0
 10 11  1  0  0  0  0
 11 12  1  0  0  0  0
 11 14  1  0  0  0  0
 12 13  1  0  0  0  0
M  END
> <Index>
12649

> <PropertyFieldDistance>
nan

$$$$
12105296
BBcorina  12272117083D 1   1.00000     0.00000 
CORINA 4.3.0 0026  30.10.2019
 10 11  0  0  0  0  0  0  0  0999 V2000
  -39.2086    3.5510  -44.7052 N   0  0  0  0  0  0  0  0  0  0  0  0
  -38.6199    4.5445  -43.7972 C   0  0  0  0  0  0  0  0  0  0  0  0
  -37.0952    4.5069  -43.9194 C   0  0  0  0  0  0  0  0  0  0  0  0
  -36.3682    4.9720  -42.6500 C   0  0  0  0  0  0  0  0  0  0  0  0
  -35.4045    3.8265  -42.9898 C   0  0  0  0  0  0  0  0  0  0  0  0
  -36.5206    3.1676  -43.6934 N   0  0  0  0  0  0  0  0  0  0  0  0
  -36.0670    2.5694  -44.9561 C   0  0  0  0  0  0  0  0  0  0  0  0
  -35.4432    1.1737  -44.8928 C   0  0  0  0  0  0  0  0  0  0  0  0
  -34.5599    2.3953  -45.1541 C   0  0  0  0  0  0  0  0  0  0  0  0
  -40.9153    3.5601  -44.5997 X   0  0  0  0  0  0  0  0  0  0  0  0
  1  2  1  0  0  0  0
  1 10  1  0  0  0  0
  2  3  1  0  0  0  0
  3  4  1  0  0  0  0
  3  6  1  0  0  0  0
  4  5  1  0  0  0  0
  5  6  1  0  0  0  0
  6  7  1  0  0  0  0
  7  8  1  0  0  0  0
  7  9  1  0  0  0  0
  8  9  1  0  0  0  0
M  END
> <Index>
12651

> <PropertyFieldDistance>
nan

$$$$
12305554
BBcorina  12272117083D 1   1.00000     0.00000 
CORINA 4.3.0 0026  30.10.2019
 12 13  0  0  0  0  0  0  0  0999 V2000
  -39.2096    3.7045  -44.8363 N   0  0  0  0  0  0  0  0  0  0  0  0
  -38.6094    4.6194  -43.8561 C   0  0  0  0  0  0  0  0  0  0  0  0
  -37.0844    4.5315  -43.9435 C   0  0  0  0  0  0  0  0  0  0  0  0
  -36.3642    4.9420  -42.6464 C   0  0  0  0  0  0  0  0  0  0  0  0
  -35.4387    3.7375  -42.8956 C   0  0  0  0  0  0  0  0  0  0  0  0
  -36.5503    3.1745  -43.6936 N   0  0  0  0  0  0  0  0  0  0  0  0
  -36.0522    2.5679  -44.9354 C   0  0  0  0  0  0  0  0  0  0  0  0
  -35.3900    1.2126  -44.6313 C   0  0  0  0  0  0  0  0  0  0  0  0
  -36.1867    0.1476  -45.4129 C   0  0  0  0  0  0  0  0  0  0  0  0
  -36.8470    0.9395  -46.5687 C   0  0  0  0  0  0  0  0  0  0  0  0
  -37.2283    2.2791  -45.8911 C   0  0  0  0  0  0  0  0  0  0  0  0
  -40.9170    3.7717  -44.7720 X   0  0  0  0  0  0  0  0  0  0  0  0
  1  2  1  0  0  0  0
  1 12  1  0  0  0  0
  2  3  1  0  0  0  0
  3  4  1  0  0  0  0
  3  6  1  0  0  0  0
  4  5  1  0  0  0  0
  5  6  1  0  0  0  0
  6  7  1  0  0  0  0
  7  8  1  0  0  0  0
  7 11  1  0  0  0  0
  8  9  1  0  0  0  0
  9 10  1  0  0  0  0
 10 11  1  0  0  0  0
M  END
> <Index>
12652

> <PropertyFieldDistance>
nan

$$$$
10809834
BBcorina  12272117083D 1   1.00000     0.00000 
CORINA 4.3.0 0026  30.10.2019
 11 12  0  0  0  0  0  0  0  0999 V2000
  -37.9402    5.2637  -44.5096 C   0  0  0  0  0  0  0  0  0  0  0  0
  -37.0751    4.2750  -43.7254 C   0  0  0  0  0  0  0  0  0  0  0  0
  -36.4299    4.9763  -42.5108 C   0  0  0  0  0  0  0  0  0  0  0  0
  -35.0536    4.2775  -42.4365 C   0  0  0  0  0  0  0  0  0  0  0  0
  -34.0151    5.2304  -42.0224 N   0  0  0  0  0  0  0  0  0  0  0  0
  -34.8008    3.7999  -43.8525 C   0  0  0  0  0  0  0  0  0  0  0  0
  -33.8397    3.3759  -44.6337 N   0  0  0  0  0  0  0  0  0  0  0  0
  -34.3405    3.1104  -45.8479 C   0  0  0  0  0  0  0  0  0  0  0  0
  -35.6594    3.3761  -45.8218 C   0  0  0  0  0  0  0  0  0  0  0  0
  -35.9519    3.8119  -44.5542 N   0  0  0  0  0  0  0  0  0  0  0  0
  -33.9699    6.5810  -43.0702 X   0  0  0  0  0  0  0  0  0  0  0  0
  1  2  1  0  0  0  0
  2  3  1  0  0  0  0
  2 10  1  0  0  0  0
  3  4  1  0  0  0  0
  4  5  1  0  0  0  0
  4  6  1  0  0  0  0
  5 11  1  0  0  0  0
  6  7  2  0  0  0  0
  6 10  1  0  0  0  0
  7  8  1  0  0  0  0
  8  9  2  0  0  0  0
  9 10  1  0  0  0  0
M  END
> <Index>
12660

> <PropertyFieldDistance>
nan

$$$$
13970608
BBcorina  12272117083D 1   1.00000     0.00000 
CORINA 4.3.0 0026  30.10.2019
 11 11  0  0  0  0  0  0  0  0999 V2000
  -36.5198    0.3718  -46.0872 N   0  0  0  0  0  0  0  0  0  0  0  0
  -36.2268    1.3266  -45.0099 C   0  0  0  0  0  0  0  0  0  0  0  0
  -36.2613    2.7510  -45.5675 C   0  0  0  0  0  0  0  0  0  0  0  0
  -35.9692    3.7031  -44.4931 N   0  0  0  0  0  0  0  0  0  0  0  0
  -37.0791    4.2403  -43.7098 C   0  0  0  0  0  0  0  0  0  0  0  0
  -36.5528    4.8218  -42.3937 C   0  0  0  0  0  0  0  0  0  0  0  0
  -35.4521    5.6900  -42.6880 O   0  0  0  0  0  0  0  0  0  0  0  0
  -34.3004    4.9894  -43.1643 C   0  0  0  0  0  0  0  0  0  0  0  0
  -34.6959    4.0516  -44.2708 C   0  0  0  0  0  0  0  0  0  0  0  0
  -33.8308    3.5947  -44.9874 O   0  0  0  0  0  0  0  0  0  0  0  0
  -36.4911   -1.2360  -45.5057 X   0  0  0  0  0  0  0  0  0  0  0  0
  1  2  1  0  0  0  0
  1 11  1  0  0  0  0
  2  3  1  0  0  0  0
  3  4  1  0  0  0  0
  4  5  1  0  0  0  0
  4  9  1  0  0  0  0
  5  6  1  0  0  0  0
  6  7  1  0  0  0  0
  7  8  1  0  0  0  0
  8  9  1  0  0  0  0
  9 10  2  0  0  0  0
M  END
> <Index>
12662

> <PropertyFieldDistance>
nan

$$$$
10803984
BBcorina  12272117083D 1   1.00000     0.00000 
CORINA 4.3.0 0026  30.10.2019
 10 11  0  0  0  0  0  0  0  0999 V2000
  -34.1368    7.4683  -40.9160 C   0  0  0  0  0  0  0  0  0  0  0  0
  -35.2075    6.4626  -40.9229 N   0  0  0  0  0  0  0  0  0  0  0  0
  -36.4647    7.0285  -40.4159 C   0  0  0  0  0  0  0  0  0  0  0  0
  -35.3890    5.8961  -42.2661 C   0  0  0  0  0  0  0  0  0  0  0  0
  -36.4718    4.8295  -42.4412 C   0  0  0  0  0  0  0  0  0  0  0  0
  -36.9946    4.5502  -43.8666 C   0  0  0  0  0  0  0  0  0  0  0  0
  -36.0637    3.5298  -44.4137 N   0  0  0  0  0  0  0  0  0  0  0  0
  -34.7276    3.9536  -43.9215 C   0  0  0  0  0  0  0  0  0  0  0  0
  -34.9804    4.4369  -42.4773 C   0  0  0  0  0  0  0  0  0  0  0  0
  -36.1098    3.5119  -46.1229 X   0  0  0  0  0  0  0  0  0  0  0  0
  1  2  1  0  0  0  0
  2  3  1  0  0  0  0
  2  4  1  0  0  0  0
  4  5  1  0  0  0  0
  4  9  1  0  0  0  0
  5  6  1  0  0  0  0
  5  9  1  0  0  0  0
  6  7  1  0  0  0  0
  7  8  1  0  0  0  0
  7 10  1  0  0  0  0
  8  9  1  0  0  0  0
M  END
> <Index>
12668

> <PropertyFieldDistance>
nan

$$$$
10803986
BBcorina  12272117083D 1   1.00000     0.00000 
CORINA 4.3.0 0026  30.10.2019
  8  9  0  0  0  0  0  0  0  0999 V2000
  -35.9408    3.8835  -44.6567 N   0  0  0  0  0  0  0  0  0  0  0  0
  -37.1576    4.0181  -43.8213 C   0  0  0  0  0  0  0  0  0  0  0  0
  -36.3226    4.9532  -42.9243 C   0  0  0  0  0  0  0  0  0  0  0  0
  -35.1020    4.2429  -43.5077 C   0  0  0  0  0  0  0  0  0  0  0  0
  -33.7658    4.9643  -43.6848 C   0  0  0  0  0  0  0  0  0  0  0  0
  -33.1714    3.6754  -43.4183 O   0  0  0  0  0  0  0  0  0  0  0  0
  -34.3359    3.1859  -42.7122 C   0  0  0  0  0  0  0  0  0  0  0  0
  -35.6886    2.2552  -45.1140 X   0  0  0  0  0  0  0  0  0  0  0  0
  1  2  1  0  0  0  0
  1  4  1  0  0  0  0
  1  8  1  0  0  0  0
  2  3  1  0  0  0  0
  3  4  1  0  0  0  0
  4  5  1  0  0  0  0
  4  7  1  0  0  0  0
  5  6  1  0  0  0  0
  6  7  1  0  0  0  0
M  END
> <Index>
12679

> <PropertyFieldDistance>
nan

$$$$
10857974
BBcorina  12272117083D 1   1.00000     0.00000 
CORINA 4.3.0 0026  30.10.2019
 11 12  0  0  0  0  0  0  0  0999 V2000
  -35.9475    3.4664  -44.1715 N   0  0  0  0  0  0  0  0  0  0  0  0
  -37.0298    4.3854  -43.7972 C   0  0  0  0  0  0  0  0  0  0  0  0
  -36.6587    5.1110  -42.5020 C   0  0  0  0  0  0  0  0  0  0  0  0
  -35.3556    5.8861  -42.7114 C   0  0  0  0  0  0  0  0  0  0  0  0
  -34.2544    4.9084  -43.1425 C   0  0  0  0  0  0  0  0  0  0  0  0
  -32.9698    5.6941  -43.4243 C   0  0  0  0  0  0  0  0  0  0  0  0
  -32.1399    5.7906  -42.1177 C   0  0  0  0  0  0  0  0  0  0  0  0
  -32.3379    4.0861  -41.4542 S   0  0  0  0  0  0  0  0  0  0  0  0
  -34.0633    3.8600  -42.0314 C   0  0  0  0  0  0  0  0  0  0  0  0
  -34.6969    4.1925  -44.4245 C   0  0  0  0  0  0  0  0  0  0  0  0
  -36.3895    2.5176  -45.5238 X   0  0  0  0  0  0  0  0  0  0  0  0
  1  2  1  0  0  0  0
  1 10  1  0  0  0  0
  1 11  1  0  0  0  0
  2  3  1  0  0  0  0
  3  4  1  0  0  0  0
  4  5  1  0  0  0  0
  5  6  1  0  0  0  0
  5  9  1  0  0  0  0
  5 10  1  0  0  0  0
  6  7  1  0  0  0  0
  7  8  1  0  0  0  0
  8  9  1  0  0  0  0
M  END
> <Index>
12695

> <PropertyFieldDistance>
nan

$$$$
11735246
BBcorina  12272117083D 1   1.00000     0.00000 
CORINA 4.3.0 0026  30.10.2019
 12 13  0  0  0  0  0  0  0  0999 V2000
  -36.1059    1.6538  -45.9847 C   0  0  0  0  0  0  0  0  0  0  0  0
  -36.3933    2.1751  -44.5752 C   0  0  0  0  0  0  0  0  0  0  0  0
  -36.0173    3.5927  -44.4913 N   0  0  0  0  0  0  0  0  0  0  0  0
  -37.8850    2.0243  -44.2700 C   0  0  0  0  0  0  0  0  0  0  0  0
  -38.1610    2.4813  -42.8363 C   0  0  0  0  0  0  0  0  0  0  0  0
  -38.7514    1.3191  -42.0352 C   0  0  0  0  0  0  0  0  0  0  0  0
  -37.7583    0.1555  -42.0173 C   0  0  0  0  0  0  0  0  0  0  0  0
  -37.4823   -0.3016  -43.4511 C   0  0  0  0  0  0  0  0  0  0  0  0
  -38.2915    0.5574  -44.4249 C   0  0  0  0  0  0  0  0  0  0  0  0
  -39.7831    0.4065  -44.1198 C   0  0  0  0  0  0  0  0  0  0  0  0
  -40.0591    0.8636  -42.6859 C   0  0  0  0  0  0  0  0  0  0  0  0
  -34.3558    3.7653  -44.1260 X   0  0  0  0  0  0  0  0  0  0  0  0
  1  2  1  0  0  0  0
  2  3  1  0  0  0  0
  2  4  1  0  0  0  0
  3 12  1  0  0  0  0
  4  5  1  0  0  0  0
  4  9  1  0  0  0  0
  5  6  1  0  0  0  0
  6  7  1  0  0  0  0
  6 11  1  0  0  0  0
  7  8  1  0  0  0  0
  8  9  1  0  0  0  0
  9 10  1  0  0  0  0
 10 11  1  0  0  0  0
M  END
> <Index>
12712

> <PropertyFieldDistance>
nan

$$$$
11758062
BBcorina  12272117083D 1   1.00000     0.00000 
CORINA 4.3.0 0026  30.10.2019
 13 13  0  0  0  0  0  0  0  0999 V2000
  -37.1816   -0.3166  -45.4819 O   0  0  0  0  0  0  0  0  0  0  0  0
  -36.9289    0.6455  -46.5079 C   0  0  0  0  0  0  0  0  0  0  0  0
  -36.9285    2.0501  -45.9011 C   0  0  0  0  0  0  0  0  0  0  0  0
  -38.1741    2.3064  -45.3181 F   0  0  0  0  0  0  0  0  0  0  0  0
  -36.6811    2.9919  -46.9055 F   0  0  0  0  0  0  0  0  0  0  0  0
  -35.8366    2.1441  -44.8336 C   0  0  0  0  0  0  0  0  0  0  0  0
  -35.7436    3.5278  -44.3489 N   0  0  0  0  0  0  0  0  0  0  0  0
  -36.8430    3.8368  -43.4240 C   0  0  0  0  0  0  0  0  0  0  0  0
  -36.7559    5.3064  -43.0052 C   0  0  0  0  0  0  0  0  0  0  0  0
  -35.4533    5.5563  -42.3725 N   0  0  0  0  0  0  0  0  0  0  0  0
  -34.3539    5.2473  -43.2973 C   0  0  0  0  0  0  0  0  0  0  0  0
  -34.4410    3.7778  -43.7162 C   0  0  0  0  0  0  0  0  0  0  0  0
  -35.3450    7.1670  -41.8083 X   0  0  0  0  0  0  0  0  0  0  0  0
  1  2  1  0  0  0  0
  2  3  1  0  0  0  0
  3  4  1  0  0  0  0
  3  5  1  0  0  0  0
  3  6  1  0  0  0  0
  6  7  1  0  0  0  0
  7  8  1  0  0  0  0
  7 12  1  0  0  0  0
  8  9  1  0  0  0  0
  9 10  1  0  0  0  0
 10 11  1  0  0  0  0
 10 13  1  0  0  0  0
 11 12  1  0  0  0  0
M  END
> <Index>
12727

> <PropertyFieldDistance>
nan

$$$$
10903486
BBcorina  12272117083D 1   1.00000     0.00000 
CORINA 4.3.0 0026  30.10.2019
 12 13  0  0  0  0  0  0  0  0999 V2000
  -36.0932    2.9692  -45.2967 C   0  0  0  0  0  0  0  0  0  0  0  0
  -36.0649    3.1803  -43.8432 N   0  0  0  0  0  0  0  0  0  0  0  0
  -37.1284    4.1009  -43.4248 C   0  0  0  0  0  0  0  0  0  0  0  0
  -36.5232    5.2776  -42.6553 C   0  0  0  0  0  0  0  0  0  0  0  0
  -35.5286    6.0224  -43.5516 C   0  0  0  0  0  0  0  0  0  0  0  0
  -34.4417    5.0445  -44.0065 C   0  0  0  0  0  0  0  0  0  0  0  0
  -34.7234    3.6651  -43.4066 C   0  0  0  0  0  0  0  0  0  0  0  0
  -34.7047    3.7592  -41.8791 C   0  0  0  0  0  0  0  0  0  0  0  0
  -34.9831    2.3803  -41.2771 C   0  0  0  0  0  0  0  0  0  0  0  0
  -34.8505    2.4483  -39.8157 N   0  0  0  0  0  0  0  0  0  0  0  0
  -35.7852    4.7442  -41.4231 C   0  0  0  0  0  0  0  0  0  0  0  0
  -35.1541    0.9246  -39.1013 X   0  0  0  0  0  0  0  0  0  0  0  0
  1  2  1  0  0  0  0
  2  3  1  0  0  0  0
  2  7  1  0  0  0  0
  3  4  1  0  0  0  0
  4  5  1  0  0  0  0
  4 11  1  0  0  0  0
  5  6  1  0  0  0  0
  6  7  1  0  0  0  0
  7  8  1  0  0  0  0
  8  9  1  0  0  0  0
  8 11  1  0  0  0  0
  9 10  1  0  0  0  0
 10 12  1  0  0  0  0
M  END
> <Index>
12729

> <PropertyFieldDistance>
nan

$$$$
11403306
BBcorina  12272117083D 1   1.00000     0.00000 
CORINA 4.3.0 0026  30.10.2019
 11 11  0  0  0  0  0  0  0  0999 V2000
  -36.3521    2.3076  -44.9371 C   0  0  0  0  0  0  0  0  0  0  0  0
  -35.9955    3.4850  -44.1416 N   0  0  0  0  0  0  0  0  0  0  0  0
  -36.9622    4.1208  -43.4626 C   0  0  0  0  0  0  0  0  0  0  0  0
  -38.0987    3.7023  -43.5144 O   0  0  0  0  0  0  0  0  0  0  0  0
  -36.6636    5.3473  -42.6416 C   0  0  0  0  0  0  0  0  0  0  0  0
  -35.2206    5.2722  -42.1314 C   0  0  0  0  0  0  0  0  0  0  0  0
  -34.2868    5.0949  -43.3333 C   0  0  0  0  0  0  0  0  0  0  0  0
  -32.9078    4.9129  -42.8609 N   0  0  0  0  0  0  0  0  0  0  0  0
  -34.7145    3.8820  -44.1168 C   0  0  0  0  0  0  0  0  0  0  0  0
  -33.8857    3.2552  -44.7413 O   0  0  0  0  0  0  0  0  0  0  0  0
  -31.7846    5.5096  -44.0040 X   0  0  0  0  0  0  0  0  0  0  0  0
  1  2  1  0  0  0  0
  2  3  1  0  0  0  0
  2  9  1  0  0  0  0
  3  4  2  0  0  0  0
  3  5  1  0  0  0  0
  5  6  1  0  0  0  0
  6  7  1  0  0  0  0
  7  8  1  0  0  0  0
  7  9  1  0  0  0  0
  8 11  1  0  0  0  0
  9 10  2  0  0  0  0
M  END
> <Index>
12757

> <PropertyFieldDistance>
nan

$$$$
11678586
BBcorina  12272117083D 1   1.00000     0.00000 
CORINA 4.3.0 0026  30.10.2019
  8  8  0  0  0  0  0  0  0  0999 V2000
  -32.6755    5.4758  -42.9881 Cl  0  0  0  0  0  0  0  0  0  0  0  0
  -34.3256    4.9838  -43.2087 C   0  0  0  0  0  0  0  0  0  0  0  0
  -35.2104    5.4063  -42.3586 C   0  0  0  0  0  0  0  0  0  0  0  0
  -36.6644    5.0354  -42.4445 C   0  0  0  0  0  0  0  0  0  0  0  0
  -36.9753    4.4840  -43.8384 C   0  0  0  0  0  0  0  0  0  0  0  0
  -35.9665    3.4650  -44.1728 N   0  0  0  0  0  0  0  0  0  0  0  0
  -34.6556    4.0954  -44.3733 C   0  0  0  0  0  0  0  0  0  0  0  0
  -36.4336    2.5701  -45.5530 X   0  0  0  0  0  0  0  0  0  0  0  0
  1  2  1  0  0  0  0
  2  3  2  0  0  0  0
  2  7  1  0  0  0  0
  3  4  1  0  0  0  0
  4  5  1  0  0  0  0
  5  6  1  0  0  0  0
  6  7  1  0  0  0  0
  6  8  1  0  0  0  0
M  END
> <Index>
12780

> <PropertyFieldDistance>
nan

$$$$
11678588
BBcorina  12272117083D 1   1.00000     0.00000 
CORINA 4.3.0 0026  30.10.2019
 14 15  0  0  0  0  0  0  0  0999 V2000
  -34.8510    0.7755  -43.4889 C   0  0  0  0  0  0  0  0  0  0  0  0
  -35.4882    1.0354  -44.8554 C   0  0  0  0  0  0  0  0  0  0  0  0
  -34.4894    0.9194  -46.0085 C   0  0  0  0  0  0  0  0  0  0  0  0
  -36.7903    0.2508  -45.0871 C   0  0  0  0  0  0  0  0  0  0  0  0
  -37.5287    1.4434  -44.4565 C   0  0  0  0  0  0  0  0  0  0  0  0
  -36.3427    2.3152  -44.9018 C   0  0  0  0  0  0  0  0  0  0  0  0
  -35.9484    3.3239  -43.9092 N   0  0  0  0  0  0  0  0  0  0  0  0
  -37.0376    4.2819  -43.6704 C   0  0  0  0  0  0  0  0  0  0  0  0
  -36.6072    5.2766  -42.5892 C   0  0  0  0  0  0  0  0  0  0  0  0
  -35.3979    5.9223  -42.9967 O   0  0  0  0  0  0  0  0  0  0  0  0
  -34.3158    5.0188  -43.2374 C   0  0  0  0  0  0  0  0  0  0  0  0
  -34.7230    4.0214  -44.3252 C   0  0  0  0  0  0  0  0  0  0  0  0
  -37.1089    0.0452  -46.5063 N   0  0  0  0  0  0  0  0  0  0  0  0
  -38.1780    1.2523  -47.0755 X   0  0  0  0  0  0  0  0  0  0  0  0
  1  2  1  0  0  0  0
  2  3  1  0  0  0  0
  2  4  1  0  0  0  0
  2  6  1  0  0  0  0
  4  5  1  0  0  0  0
  4 13  1  0  0  0  0
  5  6  1  0  0  0  0
  6  7  1  0  0  0  0
  7  8  1  0  0  0  0
  7 12  1  0  0  0  0
  8  9  1  0  0  0  0
  9 10  1  0  0  0  0
 10 11  1  0  0  0  0
 11 12  1  0  0  0  0
 13 14  1  0  0  0  0
M  END
> <Index>
12782

> <PropertyFieldDistance>
nan

$$$$
11620420
BBcorina  12272117083D 1   1.00000     0.00000 
CORINA 4.3.0 0026  30.10.2019
  9 10  0  0  0  0  0  0  0  0999 V2000
  -34.6570    1.7054  -41.7313 N   0  0  0  0  0  0  0  0  0  0  0  0
  -35.4409    2.2275  -42.8586 C   0  0  0  0  0  0  0  0  0  0  0  0
  -34.5214    2.4525  -44.0645 C   0  0  0  0  0  0  0  0  0  0  0  0
  -35.3882    2.6492  -45.3083 C   0  0  0  0  0  0  0  0  0  0  0  0
  -36.3873    3.7745  -45.0891 C   0  0  0  0  0  0  0  0  0  0  0  0
  -35.9109    5.1163  -44.5487 C   0  0  0  0  0  0  0  0  0  0  0  0
  -36.7699    4.1878  -43.6766 C   0  0  0  0  0  0  0  0  0  0  0  0
  -36.0708    3.5652  -42.4701 C   0  0  0  0  0  0  0  0  0  0  0  0
  -34.6338   -0.0044  -41.7407 X   0  0  0  0  0  0  0  0  0  0  0  0
  1  2  1  0  0  0  0
  1  9  1  0  0  0  0
  2  3  1  0  0  0  0
  2  8  1  0  0  0  0
  3  4  1  0  0  0  0
  4  5  1  0  0  0  0
  5  6  1  0  0  0  0
  5  7  1  0  0  0  0
  6  7  1  0  0  0  0
  7  8  1  0  0  0  0
M  END
> <Index>
12785

> <PropertyFieldDistance>
nan

$$$$
11618784
BBcorina  12272117083D 1   1.00000     0.00000 
CORINA 4.3.0 0026  30.10.2019
 12 13  0  0  0  0  0  0  0  0999 V2000
  -35.9480    3.4664  -44.1723 N   0  0  0  0  0  0  0  0  0  0  0  0
  -37.0290    4.3869  -43.7977 C   0  0  0  0  0  0  0  0  0  0  0  0
  -36.6587    5.1099  -42.5007 C   0  0  0  0  0  0  0  0  0  0  0  0
  -35.3532    5.8831  -42.7070 C   0  0  0  0  0  0  0  0  0  0  0  0
  -34.2558    4.9088  -43.1443 C   0  0  0  0  0  0  0  0  0  0  0  0
  -34.6958    4.1917  -44.4226 C   0  0  0  0  0  0  0  0  0  0  0  0
  -34.9521    6.5478  -41.4154 C   0  0  0  0  0  0  0  0  0  0  0  0
  -34.8001    7.8291  -41.2369 N   0  0  0  0  0  0  0  0  0  0  0  0
  -34.4401    8.0468  -39.9597 C   0  0  0  0  0  0  0  0  0  0  0  0
  -34.3726    6.8538  -39.3460 C   0  0  0  0  0  0  0  0  0  0  0  0
  -34.6988    5.9189  -40.2599 O   0  0  0  0  0  0  0  0  0  0  0  0
  -36.3899    2.5211  -45.5270 X   0  0  0  0  0  0  0  0  0  0  0  0
  1  2  1  0  0  0  0
  1  6  1  0  0  0  0
  1 12  1  0  0  0  0
  2  3  1  0  0  0  0
  3  4  1  0  0  0  0
  4  5  1  0  0  0  0
  4  7  1  0  0  0  0
  5  6  1  0  0  0  0
  7  8  2  0  0  0  0
  7 11  1  0  0  0  0
  8  9  1  0  0  0  0
  9 10  2  0  0  0  0
 10 11  1  0  0  0  0
M  END
> <Index>
12787

> <PropertyFieldDistance>
nan

$$$$
11620518
BBcorina  12272117083D 1   1.00000     0.00000 
CORINA 4.3.0 0026  30.10.2019
  8  8  0  0  0  0  0  0  0  0999 V2000
  -34.5581    1.3247  -43.3478 C   0  0  0  0  0  0  0  0  0  0  0  0
  -35.5170    2.4010  -42.8350 C   0  0  0  0  0  0  0  0  0  0  0  0
  -37.2170    2.0836  -43.4455 S   0  0  0  0  0  0  0  0  0  0  0  0
  -37.6108    3.8401  -43.8258 C   0  0  0  0  0  0  0  0  0  0  0  0
  -36.2297    4.3516  -44.3140 C   0  0  0  0  0  0  0  0  0  0  0  0
  -35.1386    3.7751  -43.4106 C   0  0  0  0  0  0  0  0  0  0  0  0
  -33.9014    3.6394  -44.1909 N   0  0  0  0  0  0  0  0  0  0  0  0
  -34.1724    2.7356  -45.6170 X   0  0  0  0  0  0  0  0  0  0  0  0
  1  2  1  0  0  0  0
  2  3  1  0  0  0  0
  2  6  1  0  0  0  0
  3  4  1  0  0  0  0
  4  5  1  0  0  0  0
  5  6  1  0  0  0  0
  6  7  1  0  0  0  0
  7  8  1  0  0  0  0
M  END
> <Index>
12788

> <PropertyFieldDistance>
nan

$$$$
11951314
BBcorina  12272117083D 1   1.00000     0.00000 
CORINA 4.3.0 0026  30.10.2019
 14 15  0  0  0  0  0  0  0  0999 V2000
  -36.0362    4.0617  -44.6408 N   0  0  0  0  0  0  0  0  0  0  0  0
  -36.9775    4.0806  -43.5124 C   0  0  0  0  0  0  0  0  0  0  0  0
  -36.5937    5.2072  -42.5502 C   0  0  0  0  0  0  0  0  0  0  0  0
  -35.2171    4.9990  -42.0799 N   0  0  0  0  0  0  0  0  0  0  0  0
  -34.2756    4.9799  -43.2087 C   0  0  0  0  0  0  0  0  0  0  0  0
  -34.6595    3.8532  -44.1710 C   0  0  0  0  0  0  0  0  0  0  0  0
  -34.8566    5.9682  -41.1441 C   0  0  0  0  0  0  0  0  0  0  0  0
  -34.8415    7.3238  -41.4162 C   0  0  0  0  0  0  0  0  0  0  0  0
  -34.4693    8.1012  -40.3968 C   0  0  0  0  0  0  0  0  0  0  0  0
  -34.1089    7.1729  -39.0121 S   0  0  0  0  0  0  0  0  0  0  0  0
  -34.4852    5.6759  -39.8538 C   0  0  0  0  0  0  0  0  0  0  0  0
  -34.4132    4.3628  -39.2867 C   0  0  0  0  0  0  0  0  0  0  0  0
  -34.3561    3.3212  -38.8369 N   0  0  0  0  0  0  0  0  0  0  0  0
  -36.4788    2.8734  -45.7881 X   0  0  0  0  0  0  0  0  0  0  0  0
  1  2  1  0  0  0  0
  1  6  1  0  0  0  0
  1 14  1  0  0  0  0
  2  3  1  0  0  0  0
  3  4  1  0  0  0  0
  4  5  1  0  0  0  0
  4  7  1  0  0  0  0
  5  6  1  0  0  0  0
  7  8  1  0  0  0  0
  7 11  2  0  0  0  0
  8  9  2  0  0  0  0
  9 10  1  0  0  0  0
 10 11  1  0  0  0  0
 11 12  1  0  0  0  0
 12 13  3  0  0  0  0
M  END
> <Index>
12792

> <PropertyFieldDistance>
nan

$$$$
10966048
BBcorina  12272117083D 1   1.00000     0.00000 
CORINA 4.3.0 0026  30.10.2019
  7  7  0  0  0  0  0  0  0  0999 V2000
  -35.6687    4.1681  -42.5021 C   0  0  0  0  0  0  0  0  0  0  0  0
  -35.8274    3.4744  -43.8566 C   0  0  0  0  0  0  0  0  0  0  0  0
  -35.9264    4.4047  -45.0672 C   0  0  0  0  0  0  0  0  0  0  0  0
  -36.6365    2.1764  -43.8950 C   0  0  0  0  0  0  0  0  0  0  0  0
  -35.1152    2.1344  -44.0518 C   0  0  0  0  0  0  0  0  0  0  0  0
  -34.3313    1.6123  -42.9244 N   0  0  0  0  0  0  0  0  0  0  0  0
  -32.7434    2.2468  -42.9362 X   0  0  0  0  0  0  0  0  0  0  0  0
  1  2  1  0  0  0  0
  2  3  1  0  0  0  0
  2  4  1  0  0  0  0
  2  5  1  0  0  0  0
  4  5  1  0  0  0  0
  5  6  1  0  0  0  0
  6  7  1  0  0  0  0
M  END
> <Index>
12812

> <PropertyFieldDistance>
nan

$$$$
10954580
BBcorina  12272117083D 1   1.00000     0.00000 
CORINA 4.3.0 0026  30.10.2019
 11 11  0  0  0  0  0  0  0  0999 V2000
  -36.9233    2.1198  -45.8810 C   0  0  0  0  0  0  0  0  0  0  0  0
  -35.7858    2.1991  -44.8608 C   0  0  0  0  0  0  0  0  0  0  0  0
  -35.7617    3.5382  -44.2574 N   0  0  0  0  0  0  0  0  0  0  0  0
  -36.9127    3.7645  -43.4916 C   0  0  0  0  0  0  0  0  0  0  0  0
  -36.9977    5.2335  -43.0199 C   0  0  0  0  0  0  0  0  0  0  0  0
  -36.0296    5.4387  -41.8820 C   0  0  0  0  0  0  0  0  0  0  0  0
  -34.7046    5.9215  -42.3335 N   0  0  0  0  0  0  0  0  0  0  0  0
  -34.2128    5.2552  -43.5569 C   0  0  0  0  0  0  0  0  0  0  0  0
  -32.7033    5.4767  -43.6720 C   0  0  0  0  0  0  0  0  0  0  0  0
  -34.4916    3.7734  -43.5415 C   0  0  0  0  0  0  0  0  0  0  0  0
  -34.7024    7.6215  -42.5183 X   0  0  0  0  0  0  0  0  0  0  0  0
  1  2  1  0  0  0  0
  2  3  1  0  0  0  0
  3  4  1  0  0  0  0
  3 10  1  0  0  0  0
  4  5  1  0  0  0  0
  5  6  1  0  0  0  0
  6  7  1  0  0  0  0
  7  8  1  0  0  0  0
  7 11  1  0  0  0  0
  8  9  1  0  0  0  0
  8 10  1  0  0  0  0
M  END
> <Index>
12814

> <PropertyFieldDistance>
nan

$$$$
12215130
BBcorina  12272117083D 1   1.00000     0.00000 
CORINA 4.3.0 0026  30.10.2019
  9  9  0  0  0  0  0  0  0  0999 V2000
  -36.0642    3.5302  -44.4138 N   0  0  0  0  0  0  0  0  0  0  0  0
  -36.9954    4.5500  -43.8664 C   0  0  0  0  0  0  0  0  0  0  0  0
  -36.4720    4.8297  -42.4412 C   0  0  0  0  0  0  0  0  0  0  0  0
  -34.9803    4.4380  -42.4781 C   0  0  0  0  0  0  0  0  0  0  0  0
  -34.1042    5.6523  -42.1633 C   0  0  0  0  0  0  0  0  0  0  0  0
  -32.6918    5.2399  -42.1190 C   0  0  0  0  0  0  0  0  0  0  0  0
  -31.5654    4.9111  -42.0837 C   0  0  0  0  0  0  0  0  0  0  0  0
  -34.7261    3.9531  -43.9215 C   0  0  0  0  0  0  0  0  0  0  0  0
  -36.1112    3.5122  -46.1231 X   0  0  0  0  0  0  0  0  0  0  0  0
  1  2  1  0  0  0  0
  1  8  1  0  0  0  0
  1  9  1  0  0  0  0
  2  3  1  0  0  0  0
  3  4  1  0  0  0  0
  4  5  1  0  0  0  0
  4  8  1  0  0  0  0
  5  6  1  0  0  0  0
  6  7  3  0  0  0  0
M  END
> <Index>
12826

> <PropertyFieldDistance>
nan

$$$$
11570748
BBcorina  12272117083D 1   1.00000     0.00000 
CORINA 4.3.0 0026  30.10.2019
 10 10  0  0  0  0  0  0  0  0999 V2000
  -35.9480    3.4664  -44.1724 N   0  0  0  0  0  0  0  0  0  0  0  0
  -37.0290    4.3869  -43.7977 C   0  0  0  0  0  0  0  0  0  0  0  0
  -36.6587    5.1099  -42.5007 C   0  0  0  0  0  0  0  0  0  0  0  0
  -35.3534    5.8832  -42.7079 C   0  0  0  0  0  0  0  0  0  0  0  0
  -34.2559    4.9088  -43.1443 C   0  0  0  0  0  0  0  0  0  0  0  0
  -32.9630    5.6821  -43.4115 C   0  0  0  0  0  0  0  0  0  0  0  0
  -31.8780    4.7343  -43.7142 C   0  0  0  0  0  0  0  0  0  0  0  0
  -31.0128    3.9785  -43.9556 C   0  0  0  0  0  0  0  0  0  0  0  0
  -34.6958    4.1916  -44.4226 C   0  0  0  0  0  0  0  0  0  0  0  0
  -36.3899    2.5211  -45.5270 X   0  0  0  0  0  0  0  0  0  0  0  0
  1  2  1  0  0  0  0
  1  9  1  0  0  0  0
  1 10  1  0  0  0  0
  2  3  1  0  0  0  0
  3  4  1  0  0  0  0
  4  5  1  0  0  0  0
  5  6  1  0  0  0  0
  5  9  1  0  0  0  0
  6  7  1  0  0  0  0
  7  8  3  0  0  0  0
M  END
> <Index>
12827

> <PropertyFieldDistance>
nan

$$$$
11399538
BBcorina  12272117083D 1   1.00000     0.00000 
CORINA 4.3.0 0026  30.10.2019
 12 12  0  0  0  0  0  0  0  0999 V2000
  -35.0898    0.7880  -44.5300 O   0  0  0  0  0  0  0  0  0  0  0  0
  -35.5846    1.5785  -45.6127 C   0  0  0  0  0  0  0  0  0  0  0  0
  -36.1783    0.6615  -46.6840 C   0  0  0  0  0  0  0  0  0  0  0  0
  -35.1385   -0.2507  -47.1787 N   0  0  0  0  0  0  0  0  0  0  0  0
  -36.6675    2.5286  -45.0975 C   0  0  0  0  0  0  0  0  0  0  0  0
  -36.1051    3.3891  -44.0481 N   0  0  0  0  0  0  0  0  0  0  0  0
  -37.0920    4.3760  -43.5918 C   0  0  0  0  0  0  0  0  0  0  0  0
  -36.5239    5.1557  -42.4037 C   0  0  0  0  0  0  0  0  0  0  0  0
  -35.2320    5.8579  -42.8310 C   0  0  0  0  0  0  0  0  0  0  0  0
  -34.2390    4.8129  -43.3472 C   0  0  0  0  0  0  0  0  0  0  0  0
  -34.8734    4.0432  -44.5079 C   0  0  0  0  0  0  0  0  0  0  0  0
  -35.7613   -1.2956  -48.3806 X   0  0  0  0  0  0  0  0  0  0  0  0
  1  2  1  0  0  0  0
  2  3  1  0  0  0  0
  2  5  1  0  0  0  0
  3  4  1  0  0  0  0
  4 12  1  0  0  0  0
  5  6  1  0  0  0  0
  6  7  1  0  0  0  0
  6 11  1  0  0  0  0
  7  8  1  0  0  0  0
  8  9  1  0  0  0  0
  9 10  1  0  0  0  0
 10 11  1  0  0  0  0
M  END
> <Index>
12837

> <PropertyFieldDistance>
nan

$$$$
11399540
BBcorina  12272117083D 1   1.00000     0.00000 
CORINA 4.3.0 0026  30.10.2019
 16 17  0  0  0  0  0  0  0  0999 V2000
  -39.4403   -1.8999  -45.2543 N   0  0  0  0  0  0  0  0  0  0  0  0
  -39.1000   -1.6989  -43.8400 C   0  0  0  0  0  0  0  0  0  0  0  0
  -38.8347   -0.2136  -43.5839 C   0  0  0  0  0  0  0  0  0  0  0  0
  -37.6829    0.2555  -44.4771 C   0  0  0  0  0  0  0  0  0  0  0  0
  -38.0409   -0.0096  -45.9420 C   0  0  0  0  0  0  0  0  0  0  0  0
  -38.3307   -1.5006  -46.1294 C   0  0  0  0  0  0  0  0  0  0  0  0
  -37.4626    1.6902  -44.2789 N   0  0  0  0  0  0  0  0  0  0  0  0
  -36.2534    2.2280  -44.5340 C   0  0  0  0  0  0  0  0  0  0  0  0
  -35.3725    1.5422  -45.0157 O   0  0  0  0  0  0  0  0  0  0  0  0
  -36.0207    3.5259  -44.2552 N   0  0  0  0  0  0  0  0  0  0  0  0
  -37.1016    4.4031  -43.7746 C   0  0  0  0  0  0  0  0  0  0  0  0
  -36.6111    5.1266  -42.5152 C   0  0  0  0  0  0  0  0  0  0  0  0
  -35.3572    5.7557  -42.7909 O   0  0  0  0  0  0  0  0  0  0  0  0
  -34.3083    4.8461  -43.1313 C   0  0  0  0  0  0  0  0  0  0  0  0
  -34.6796    4.1080  -44.4227 C   0  0  0  0  0  0  0  0  0  0  0  0
  -39.9010   -3.5200  -45.5495 X   0  0  0  0  0  0  0  0  0  0  0  0
  1  2  1  0  0  0  0
  1  6  1  0  0  0  0
  1 16  1  0  0  0  0
  2  3  1  0  0  0  0
  3  4  1  0  0  0  0
  4  5  1  0  0  0  0
  4  7  1  0  0  0  0
  5  6  1  0  0  0  0
  7  8  1  0  0  0  0
  8  9  2  0  0  0  0
  8 10  1  0  0  0  0
 10 11  1  0  0  0  0
 10 15  1  0  0  0  0
 11 12  1  0  0  0  0
 12 13  1  0  0  0  0
 13 14  1  0  0  0  0
 14 15  1  0  0  0  0
M  END
> <Index>
12839

> <PropertyFieldDistance>
nan

$$$$
11399542
BBcorina  12272117083D 1   1.00000     0.00000 
CORINA 4.3.0 0026  30.10.2019
 11 11  0  0  0  0  0  0  0  0999 V2000
  -36.3302    2.3511  -45.0030 C   0  0  0  0  0  0  0  0  0  0  0  0
  -35.9848    3.4656  -44.1171 N   0  0  0  0  0  0  0  0  0  0  0  0
  -37.0418    4.0334  -43.2897 C   0  0  0  0  0  0  0  0  0  0  0  0
  -36.6519    5.4314  -42.8080 C   0  0  0  0  0  0  0  0  0  0  0  0
  -35.2516    5.3639  -42.1867 C   0  0  0  0  0  0  0  0  0  0  0  0
  -34.9115    6.7061  -41.5359 C   0  0  0  0  0  0  0  0  0  0  0  0
  -33.6165    6.6035  -40.8499 N   0  0  0  0  0  0  0  0  0  0  0  0
  -34.2430    5.0593  -43.2971 C   0  0  0  0  0  0  0  0  0  0  0  0
  -34.7230    3.8969  -44.1182 C   0  0  0  0  0  0  0  0  0  0  0  0
  -33.9196    3.3196  -44.8200 O   0  0  0  0  0  0  0  0  0  0  0  0
  -33.1975    8.0857  -40.1070 X   0  0  0  0  0  0  0  0  0  0  0  0
  1  2  1  0  0  0  0
  2  3  1  0  0  0  0
  2  9  1  0  0  0  0
  3  4  1  0  0  0  0
  4  5  1  0  0  0  0
  5  6  1  0  0  0  0
  5  8  1  0  0  0  0
  6  7  1  0  0  0  0
  7 11  1  0  0  0  0
  8  9  1  0  0  0  0
  9 10  2  0  0  0  0
M  END
> <Index>
12840

> <PropertyFieldDistance>
nan

$$$$
14592232
BBcorina  12272117083D 1   1.00000     0.00000 
CORINA 4.3.0 0026  30.10.2019
 11 12  0  0  0  0  0  0  0  0999 V2000
  -37.2992    2.1646  -45.8916 N   0  0  0  0  0  0  0  0  0  0  0  0
  -36.4725    3.2432  -45.3337 C   0  0  0  0  0  0  0  0  0  0  0  0
  -35.1634    3.4077  -46.1486 C   0  0  0  0  0  0  0  0  0  0  0  0
  -34.0609    3.1796  -45.2344 O   0  0  0  0  0  0  0  0  0  0  0  0
  -34.5609    3.5335  -43.9498 C   0  0  0  0  0  0  0  0  0  0  0  0
  -33.8085    3.0218  -42.7387 C   0  0  0  0  0  0  0  0  0  0  0  0
  -34.5486    3.5278  -41.4895 C   0  0  0  0  0  0  0  0  0  0  0  0
  -36.0058    3.0705  -41.4840 C   0  0  0  0  0  0  0  0  0  0  0  0
  -36.7307    3.4820  -42.7756 C   0  0  0  0  0  0  0  0  0  0  0  0
  -35.9665    2.8702  -43.9363 C   0  0  0  0  0  0  0  0  0  0  0  0
  -36.4402    0.6864  -45.9201 X   0  0  0  0  0  0  0  0  0  0  0  0
  1  2  1  0  0  0  0
  1 11  1  0  0  0  0
  2  3  1  0  0  0  0
  2 10  1  0  0  0  0
  3  4  1  0  0  0  0
  4  5  1  0  0  0  0
  5  6  1  0  0  0  0
  5 10  1  0  0  0  0
  6  7  1  0  0  0  0
  7  8  1  0  0  0  0
  8  9  1  0  0  0  0
  9 10  1  0  0  0  0
M  END
> <Index>
12849

> <PropertyFieldDistance>
nan

$$$$
17661588
BBcorina  12272117083D 1   1.00000     0.00000 
CORINA 4.3.0 0026  30.10.2019
  9  9  0  0  0  0  0  0  0  0999 V2000
  -34.9400    5.9936  -41.0386 N   0  0  0  0  0  0  0  0  0  0  0  0
  -35.2771    4.9537  -42.0198 C   0  0  0  0  0  0  0  0  0  0  0  0
  -36.6370    5.2655  -42.6560 C   0  0  0  0  0  0  0  0  0  0  0  0
  -37.0533    4.0842  -43.5335 C   0  0  0  0  0  0  0  0  0  0  0  0
  -35.9754    3.7210  -44.4448 N   0  0  0  0  0  0  0  0  0  0  0  0
  -34.6999    4.0691  -44.2709 C   0  0  0  0  0  0  0  0  0  0  0  0
  -33.8825    3.6748  -45.0753 O   0  0  0  0  0  0  0  0  0  0  0  0
  -34.2216    4.9239  -43.1325 C   0  0  0  0  0  0  0  0  0  0  0  0
  -34.9620    7.5449  -41.7576 X   0  0  0  0  0  0  0  0  0  0  0  0
  1  2  1  0  0  0  0
  1  9  1  0  0  0  0
  2  3  1  0  0  0  0
  2  8  1  0  0  0  0
  3  4  1  0  0  0  0
  4  5  1  0  0  0  0
  5  6  1  0  0  0  0
  6  7  2  0  0  0  0
  6  8  1  0  0  0  0
M  END
> <Index>
12852

> <PropertyFieldDistance>
nan

$$$$
16893106
BBcorina  12272117083D 1   1.00000     0.00000 
CORINA 4.3.0 0026  30.10.2019
 10 10  0  0  0  0  0  0  0  0999 V2000
  -34.9963    7.4693  -41.8571 O   0  5  0  0  0  0  0  0  0  0  0  0
  -34.9395    6.3776  -41.3202 N   0  3  0  0  0  0  0  0  0  0  0  0
  -34.6276    6.2918  -40.1459 O   0  0  0  0  0  0  0  0  0  0  0  0
  -35.2462    5.1675  -42.0868 C   0  0  0  0  0  0  0  0  0  0  0  0
  -36.6793    5.2476  -42.6203 C   0  0  0  0  0  0  0  0  0  0  0  0
  -36.9723    4.0086  -43.4694 C   0  0  0  0  0  0  0  0  0  0  0  0
  -36.0191    3.9414  -44.5845 N   0  0  0  0  0  0  0  0  0  0  0  0
  -34.6396    3.8164  -44.0971 C   0  0  0  0  0  0  0  0  0  0  0  0
  -34.2769    5.0496  -43.2664 C   0  0  0  0  0  0  0  0  0  0  0  0
  -36.4111    2.6624  -45.6495 X   0  0  0  0  0  0  0  0  0  0  0  0
  1  2  1  0  0  0  0
  2  3  2  0  0  0  0
  2  4  1  0  0  0  0
  4  5  1  0  0  0  0
  4  9  1  0  0  0  0
  5  6  1  0  0  0  0
  6  7  1  0  0  0  0
  7  8  1  0  0  0  0
  7 10  1  0  0  0  0
  8  9  1  0  0  0  0
M  END
> <Index>
12854

> <PropertyFieldDistance>
nan

$$$$
11406626
BBcorina  12272117083D 1   1.00000     0.00000 
CORINA 4.3.0 0026  30.10.2019
 14 15  0  0  0  0  0  0  0  0999 V2000
  -37.6215    1.3032  -46.6046 C   0  0  0  0  0  0  0  0  0  0  0  0
  -37.4759    2.3123  -45.5709 O   0  0  0  0  0  0  0  0  0  0  0  0
  -36.2371    2.5145  -45.0841 C   0  0  0  0  0  0  0  0  0  0  0  0
  -35.3030    1.8654  -45.5115 O   0  0  0  0  0  0  0  0  0  0  0  0
  -36.0329    3.4368  -44.1227 N   0  0  0  0  0  0  0  0  0  0  0  0
  -37.1346    4.2494  -43.5714 C   0  0  0  0  0  0  0  0  0  0  0  0
  -36.5152    5.1681  -42.5071 C   0  0  0  0  0  0  0  0  0  0  0  0
  -35.4639    6.0612  -43.1705 C   0  0  0  0  0  0  0  0  0  0  0  0
  -34.3613    5.1741  -43.7903 C   0  0  0  0  0  0  0  0  0  0  0  0
  -34.6937    3.6949  -43.5574 C   0  0  0  0  0  0  0  0  0  0  0  0
  -34.7573    3.4422  -42.0467 C   0  0  0  0  0  0  0  0  0  0  0  0
  -35.8570    4.3057  -41.4275 C   0  0  0  0  0  0  0  0  0  0  0  0
  -35.0518    2.0242  -41.8000 N   0  0  0  0  0  0  0  0  0  0  0  0
  -36.4953    1.5524  -42.5860 X   0  0  0  0  0  0  0  0  0  0  0  0
  1  2  1  0  0  0  0
  2  3  1  0  0  0  0
  3  4  2  0  0  0  0
  3  5  1  0  0  0  0
  5  6  1  0  0  0  0
  5 10  1  0  0  0  0
  6  7  1  0  0  0  0
  7  8  1  0  0  0  0
  7 12  1  0  0  0  0
  8  9  1  0  0  0  0
  9 10  1  0  0  0  0
 10 11  1  0  0  0  0
 11 12  1  0  0  0  0
 11 13  1  0  0  0  0
 13 14  1  0  0  0  0
M  END
> <Index>
12858

> <PropertyFieldDistance>
nan

$$$$
11618796
BBcorina  12272117083D 1   1.00000     0.00000 
CORINA 4.3.0 0026  30.10.2019
 11 12  0  0  0  0  0  0  0  0999 V2000
  -36.9401   -0.2544  -46.1248 N   0  0  0  0  0  0  0  0  0  0  0  0
  -37.0268    1.1515  -46.5418 C   0  0  0  0  0  0  0  0  0  0  0  0
  -37.7132    2.0597  -45.5080 C   0  0  0  0  0  0  0  0  0  0  0  0
  -36.3218    2.2737  -44.8888 C   0  0  0  0  0  0  0  0  0  0  0  0
  -35.7417    1.9532  -46.2765 C   0  0  0  0  0  0  0  0  0  0  0  0
  -36.0777    3.6554  -44.4538 N   0  0  0  0  0  0  0  0  0  0  0  0
  -37.0720    4.0757  -43.4331 C   0  0  0  0  0  0  0  0  0  0  0  0
  -36.4036    5.2609  -42.7039 C   0  0  0  0  0  0  0  0  0  0  0  0
  -34.8891    5.0608  -42.9181 C   0  0  0  0  0  0  0  0  0  0  0  0
  -34.7698    3.7714  -43.7587 C   0  0  0  0  0  0  0  0  0  0  0  0
  -36.9727   -1.2985  -47.4785 X   0  0  0  0  0  0  0  0  0  0  0  0
  1  2  1  0  0  0  0
  1 11  1  0  0  0  0
  2  3  1  0  0  0  0
  2  5  1  0  0  0  0
  3  4  1  0  0  0  0
  4  5  1  0  0  0  0
  4  6  1  0  0  0  0
  6  7  1  0  0  0  0
  6 10  1  0  0  0  0
  7  8  1  0  0  0  0
  8  9  1  0  0  0  0
  9 10  1  0  0  0  0
M  END
> <Index>
12861

> <PropertyFieldDistance>
nan

$$$$
15268606
BBcorina  12272117083D 1   1.00000     0.00000 
CORINA 4.3.0 0026  30.10.2019
 12 14  0  0  0  0  0  0  0  0999 V2000
  -31.5851    3.3061  -44.2914 N   0  0  0  0  0  0  0  0  0  0  0  0
  -32.9312    2.7179  -44.2817 C   0  0  0  0  0  0  0  0  0  0  0  0
  -33.8769    3.3268  -45.3330 C   0  0  0  0  0  0  0  0  0  0  0  0
  -34.9656    3.2699  -44.2613 C   0  0  0  0  0  0  0  0  0  0  0  0
  -33.8565    3.3153  -43.2062 C   0  0  0  0  0  0  0  0  0  0  0  0
  -36.1118    4.2845  -44.2447 C   0  0  0  0  0  0  0  0  0  0  0  0
  -36.9569    3.1753  -43.6134 C   0  0  0  0  0  0  0  0  0  0  0  0
  -37.2332    3.1545  -42.1097 C   0  0  0  0  0  0  0  0  0  0  0  0
  -38.5583    2.4492  -42.4512 C   0  0  0  0  0  0  0  0  0  0  0  0
  -38.4673    3.1083  -43.8396 C   0  0  0  0  0  0  0  0  0  0  0  0
  -36.0146    2.1553  -44.2574 C   0  0  0  0  0  0  0  0  0  0  0  0
  -31.6511    4.9921  -44.0136 X   0  0  0  0  0  0  0  0  0  0  0  0
  1  2  1  0  0  0  0
  1 12  1  0  0  0  0
  2  3  1  0  0  0  0
  2  5  1  0  0  0  0
  3  4  1  0  0  0  0
  4  5  1  0  0  0  0
  4  6  1  0  0  0  0
  4 11  1  0  0  0  0
  6  7  1  0  0  0  0
  7  8  1  0  0  0  0
  7 10  1  0  0  0  0
  7 11  1  0  0  0  0
  8  9  1  0  0  0  0
  9 10  1  0  0  0  0
M  END
> <Index>
12866

> <PropertyFieldDistance>
nan

$$$$
12865462
BBcorina  12272117083D 1   1.00000     0.00000 
CORINA 4.3.0 0026  30.10.2019
 10 10  0  0  0  0  0  0  0  0999 V2000
  -34.4611    1.5834  -41.4963 N   0  0  0  0  0  0  0  0  0  0  0  0
  -35.2450    2.1055  -42.6236 C   0  0  0  0  0  0  0  0  0  0  0  0
  -35.8737    3.4440  -42.2312 C   0  0  0  0  0  0  0  0  0  0  0  0
  -36.6901    3.9878  -43.4054 C   0  0  0  0  0  0  0  0  0  0  0  0
  -35.7736    4.1896  -44.6137 C   0  0  0  0  0  0  0  0  0  0  0  0
  -35.1449    2.8511  -45.0062 C   0  0  0  0  0  0  0  0  0  0  0  0
  -34.3285    2.3074  -43.8320 C   0  0  0  0  0  0  0  0  0  0  0  0
  -36.5591    4.7128  -45.7434 C   0  0  0  0  0  0  0  0  0  0  0  0
  -37.1855    5.1300  -46.6443 C   0  0  0  0  0  0  0  0  0  0  0  0
  -34.4379   -0.1264  -41.5057 X   0  0  0  0  0  0  0  0  0  0  0  0
  1  2  1  0  0  0  0
  1 10  1  0  0  0  0
  2  3  1  0  0  0  0
  2  7  1  0  0  0  0
  3  4  1  0  0  0  0
  4  5  1  0  0  0  0
  5  6  1  0  0  0  0
  5  8  1  0  0  0  0
  6  7  1  0  0  0  0
  8  9  3  0  0  0  0
M  END
> <Index>
12869

> <PropertyFieldDistance>
nan

$$$$
18052782
BBcorina  12272117083D 1   1.00000     0.00000 
CORINA 4.3.0 0026  30.10.2019
 13 14  0  0  0  0  0  0  0  0999 V2000
  -35.7418    7.2483  -40.6787 O   0  0  0  0  0  0  0  0  0  0  0  0
  -34.9563    6.9434  -41.8329 C   0  0  0  0  0  0  0  0  0  0  0  0
  -35.2385    5.5067  -42.2767 C   0  0  0  0  0  0  0  0  0  0  0  0
  -36.6924    5.3914  -42.7433 C   0  0  0  0  0  0  0  0  0  0  0  0
  -36.9513    3.9683  -43.2428 C   0  0  0  0  0  0  0  0  0  0  0  0
  -36.0372    3.6631  -44.3508 N   0  0  0  0  0  0  0  0  0  0  0  0
  -34.6362    3.7211  -43.9147 C   0  0  0  0  0  0  0  0  0  0  0  0
  -34.3080    5.1368  -43.4352 C   0  0  0  0  0  0  0  0  0  0  0  0
  -36.3495    2.3571  -44.9464 C   0  0  0  0  0  0  0  0  0  0  0  0
  -35.5077    2.0271  -46.1922 C   0  0  0  0  0  0  0  0  0  0  0  0
  -35.3992    0.6606  -45.6352 N   0  0  0  0  0  0  0  0  0  0  0  0
  -35.6281    1.1784  -44.2682 C   0  0  0  0  0  0  0  0  0  0  0  0
  -33.8088    0.0550  -45.8029 X   0  0  0  0  0  0  0  0  0  0  0  0
  1  2  1  0  0  0  0
  2  3  1  0  0  0  0
  3  4  1  0  0  0  0
  3  8  1  0  0  0  0
  4  5  1  0  0  0  0
  5  6  1  0  0  0  0
  6  7  1  0  0  0  0
  6  9  1  0  0  0  0
  7  8  1  0  0  0  0
  9 10  1  0  0  0  0
  9 12  1  0  0  0  0
 10 11  1  0  0  0  0
 11 12  1  0  0  0  0
 11 13  1  0  0  0  0
M  END
> <Index>
12872

> <PropertyFieldDistance>
nan

$$$$
11618802
BBcorina  12272117083D 1   1.00000     0.00000 
CORINA 4.3.0 0026  30.10.2019
 11 11  0  0  0  0  0  0  0  0999 V2000
  -35.5010    0.2389  -47.7282 F   0  0  0  0  0  0  0  0  0  0  0  0
  -36.1711    0.5271  -46.5343 C   0  0  0  0  0  0  0  0  0  0  0  0
  -35.7823    1.9276  -46.0565 C   0  0  0  0  0  0  0  0  0  0  0  0
  -36.5152    2.2426  -44.7509 C   0  0  0  0  0  0  0  0  0  0  0  0
  -36.1420    3.5873  -44.2922 N   0  0  0  0  0  0  0  0  0  0  0  0
  -36.9971    4.0198  -43.1779 C   0  0  0  0  0  0  0  0  0  0  0  0
  -36.6299    5.4522  -42.7828 C   0  0  0  0  0  0  0  0  0  0  0  0
  -35.2107    5.5048  -42.4050 N   0  0  0  0  0  0  0  0  0  0  0  0
  -34.3557    5.0723  -43.5191 C   0  0  0  0  0  0  0  0  0  0  0  0
  -34.7229    3.6399  -43.9143 C   0  0  0  0  0  0  0  0  0  0  0  0
  -34.7764    7.0700  -41.8709 X   0  0  0  0  0  0  0  0  0  0  0  0
  1  2  1  0  0  0  0
  2  3  1  0  0  0  0
  3  4  1  0  0  0  0
  4  5  1  0  0  0  0
  5  6  1  0  0  0  0
  5 10  1  0  0  0  0
  6  7  1  0  0  0  0
  7  8  1  0  0  0  0
  8  9  1  0  0  0  0
  8 11  1  0  0  0  0
  9 10  1  0  0  0  0
M  END
> <Index>
12874

> <PropertyFieldDistance>
nan

$$$$
11566678
BBcorina  12272117083D 1   1.00000     0.00000 
CORINA 4.3.0 0026  30.10.2019
 12 12  0  0  0  0  0  0  0  0999 V2000
  -35.5495    1.6106  -45.7065 C   0  0  0  0  0  0  0  0  0  0  0  0
  -36.7355    2.3653  -45.1023 C   0  0  0  0  0  0  0  0  0  0  0  0
  -37.5615    1.4099  -44.2388 C   0  0  0  0  0  0  0  0  0  0  0  0
  -37.6109    2.9230  -46.2264 C   0  0  0  0  0  0  0  0  0  0  0  0
  -36.2417    3.4686  -44.2747 N   0  0  0  0  0  0  0  0  0  0  0  0
  -37.1032    4.4036  -43.5415 C   0  0  0  0  0  0  0  0  0  0  0  0
  -36.1845    5.0808  -42.5005 C   0  0  0  0  0  0  0  0  0  0  0  0
  -34.7973    4.9481  -43.1706 C   0  0  0  0  0  0  0  0  0  0  0  0
  -33.7603    4.6975  -42.1607 N   0  0  0  0  0  0  0  0  0  0  0  0
  -34.9415    3.7544  -44.0888 C   0  0  0  0  0  0  0  0  0  0  0  0
  -34.0183    3.1439  -44.5845 O   0  0  0  0  0  0  0  0  0  0  0  0
  -32.2338    5.2479  -42.7002 X   0  0  0  0  0  0  0  0  0  0  0  0
  1  2  1  0  0  0  0
  2  3  1  0  0  0  0
  2  4  1  0  0  0  0
  2  5  1  0  0  0  0
  5  6  1  0  0  0  0
  5 10  1  0  0  0  0
  6  7  1  0  0  0  0
  7  8  1  0  0  0  0
  8  9  1  0  0  0  0
  8 10  1  0  0  0  0
  9 12  1  0  0  0  0
 10 11  2  0  0  0  0
M  END
> <Index>
12889

> <PropertyFieldDistance>
nan

$$$$
11567682
BBcorina  12272117083D 1   1.00000     0.00000 
CORINA 4.3.0 0026  30.10.2019
 13 14  0  0  0  0  0  0  0  0999 V2000
  -35.9480    3.4664  -44.1723 N   0  0  0  0  0  0  0  0  0  0  0  0
  -37.0291    4.3869  -43.7977 C   0  0  0  0  0  0  0  0  0  0  0  0
  -36.6585    5.1099  -42.5008 C   0  0  0  0  0  0  0  0  0  0  0  0
  -35.3535    5.8833  -42.7079 C   0  0  0  0  0  0  0  0  0  0  0  0
  -34.2559    4.9088  -43.1442 C   0  0  0  0  0  0  0  0  0  0  0  0
  -34.6958    4.1916  -44.4226 C   0  0  0  0  0  0  0  0  0  0  0  0
  -34.9460    6.5589  -41.3971 C   0  0  0  0  0  0  0  0  0  0  0  0
  -33.6361    7.3261  -41.6018 C   0  0  0  0  0  0  0  0  0  0  0  0
  -33.2777    8.0625  -40.3083 C   0  0  0  0  0  0  0  0  0  0  0  0
  -34.3486    8.9370  -39.9472 O   0  0  0  0  0  0  0  0  0  0  0  0
  -35.5874    8.2701  -39.6971 C   0  0  0  0  0  0  0  0  0  0  0  0
  -36.0387    7.5419  -40.9659 C   0  0  0  0  0  0  0  0  0  0  0  0
  -36.3899    2.5211  -45.5270 X   0  0  0  0  0  0  0  0  0  0  0  0
  1  2  1  0  0  0  0
  1  6  1  0  0  0  0
  1 13  1  0  0  0  0
  2  3  1  0  0  0  0
  3  4  1  0  0  0  0
  4  5  1  0  0  0  0
  4  7  1  0  0  0  0
  5  6  1  0  0  0  0
  7  8  1  0  0  0  0
  7 12  1  0  0  0  0
  8  9  1  0  0  0  0
  9 10  1  0  0  0  0
 10 11  1  0  0  0  0
 11 12  1  0  0  0  0
M  END
> <Index>
12892

> <PropertyFieldDistance>
nan

$$$$
11573560
BBcorina  12272117083D 1   1.00000     0.00000 
CORINA 4.3.0 0026  30.10.2019
 11 11  0  0  0  0  0  0  0  0999 V2000
  -34.2917    3.9461  -41.9094 C   0  0  0  0  0  0  0  0  0  0  0  0
  -34.2999    4.8882  -43.1149 C   0  0  0  0  0  0  0  0  0  0  0  0
  -32.9279    5.5497  -43.2589 C   0  0  0  0  0  0  0  0  0  0  0  0
  -31.9036    4.5150  -43.4550 N   0  0  0  0  0  0  0  0  0  0  0  0
  -35.3726    5.9662  -42.9182 C   0  0  0  0  0  0  0  0  0  0  0  0
  -36.7005    5.2693  -42.5955 C   0  0  0  0  0  0  0  0  0  0  0  0
  -36.9556    4.1679  -43.5840 C   0  0  0  0  0  0  0  0  0  0  0  0
  -38.0838    3.7334  -43.6807 O   0  0  0  0  0  0  0  0  0  0  0  0
  -36.0080    3.6417  -44.3608 N   0  0  0  0  0  0  0  0  0  0  0  0
  -34.6233    4.0964  -44.3826 C   0  0  0  0  0  0  0  0  0  0  0  0
  -30.3513    5.2129  -43.6208 X   0  0  0  0  0  0  0  0  0  0  0  0
  1  2  1  0  0  0  0
  2  3  1  0  0  0  0
  2  5  1  0  0  0  0
  2 10  1  0  0  0  0
  3  4  1  0  0  0  0
  4 11  1  0  0  0  0
  5  6  1  0  0  0  0
  6  7  1  0  0  0  0
  7  8  2  0  0  0  0
  7  9  1  0  0  0  0
  9 10  1  0  0  0  0
M  END
> <Index>
12897

> <PropertyFieldDistance>
nan

$$$$
11951688
BBcorina  12272117083D 1   1.00000     0.00000 
CORINA 4.3.0 0026  30.10.2019
 14 15  0  0  0  0  0  0  0  0999 V2000
  -36.3252    2.2686  -44.8843 C   0  0  0  0  0  0  0  0  0  0  0  0
  -36.0082    3.4990  -44.1551 N   0  0  0  0  0  0  0  0  0  0  0  0
  -36.9639    4.1139  -43.4342 C   0  0  0  0  0  0  0  0  0  0  0  0
  -38.0768    3.6347  -43.3821 O   0  0  0  0  0  0  0  0  0  0  0  0
  -36.6677    5.3891  -42.6917 C   0  0  0  0  0  0  0  0  0  0  0  0
  -35.2363    5.3589  -42.1552 C   0  0  0  0  0  0  0  0  0  0  0  0
  -34.2950    4.9401  -43.2545 C   0  0  0  0  0  0  0  0  0  0  0  0
  -33.0179    5.4611  -43.3107 C   0  0  0  0  0  0  0  0  0  0  0  0
  -32.1564    5.0743  -44.3215 C   0  0  0  0  0  0  0  0  0  0  0  0
  -32.5710    4.1654  -45.2774 C   0  0  0  0  0  0  0  0  0  0  0  0
  -33.8478    3.6404  -45.2262 C   0  0  0  0  0  0  0  0  0  0  0  0
  -34.7147    4.0269  -44.2132 C   0  0  0  0  0  0  0  0  0  0  0  0
  -37.6062    5.5299  -41.5705 N   0  0  0  0  0  0  0  0  0  0  0  0
  -39.0177    6.3654  -42.0539 X   0  0  0  0  0  0  0  0  0  0  0  0
  1  2  1  0  0  0  0
  2  3  1  0  0  0  0
  2 12  1  0  0  0  0
  3  4  2  0  0  0  0
  3  5  1  0  0  0  0
  5  6  1  0  0  0  0
  5 13  1  0  0  0  0
  6  7  1  0  0  0  0
  7  8  2  0  0  0  0
  7 12  1  0  0  0  0
  8  9  1  0  0  0  0
  9 10  2  0  0  0  0
 10 11  1  0  0  0  0
 11 12  2  0  0  0  0
 13 14  1  0  0  0  0
M  END
> <Index>
12904

> <PropertyFieldDistance>
nan

$$$$
15248554
BBcorina  12272117083D 1   1.00000     0.00000 
CORINA 4.3.0 0026  30.10.2019
 12 12  0  0  0  0  0  0  0  0999 V2000
  -35.6253    1.5120  -45.5575 C   0  0  0  0  0  0  0  0  0  0  0  0
  -36.6482    2.5773  -45.1578 C   0  0  0  0  0  0  0  0  0  0  0  0
  -37.9299    1.8970  -44.6726 C   0  0  0  0  0  0  0  0  0  0  0  0
  -36.9653    3.4591  -46.3673 C   0  0  0  0  0  0  0  0  0  0  0  0
  -36.0953    3.4066  -44.0786 N   0  0  0  0  0  0  0  0  0  0  0  0
  -37.0876    4.3775  -43.6000 C   0  0  0  0  0  0  0  0  0  0  0  0
  -36.5300    5.1219  -42.3848 C   0  0  0  0  0  0  0  0  0  0  0  0
  -35.2356    5.8396  -42.7806 C   0  0  0  0  0  0  0  0  0  0  0  0
  -34.2375    4.8119  -43.3210 C   0  0  0  0  0  0  0  0  0  0  0  0
  -34.8615    4.0766  -44.5093 C   0  0  0  0  0  0  0  0  0  0  0  0
  -33.0141    5.4986  -43.7569 N   0  0  0  0  0  0  0  0  0  0  0  0
  -33.3692    6.7101  -44.9101 X   0  0  0  0  0  0  0  0  0  0  0  0
  1  2  1  0  0  0  0
  2  3  1  0  0  0  0
  2  4  1  0  0  0  0
  2  5  1  0  0  0  0
  5  6  1  0  0  0  0
  5 10  1  0  0  0  0
  6  7  1  0  0  0  0
  7  8  1  0  0  0  0
  8  9  1  0  0  0  0
  9 10  1  0  0  0  0
  9 11  1  0  0  0  0
 11 12  1  0  0  0  0
M  END
> <Index>
12911

> <PropertyFieldDistance>
nan

$$$$
11406706
BBcorina  12272117083D 1   1.00000     0.00000 
CORINA 4.3.0 0026  30.10.2019
  8  9  0  0  0  0  0  0  0  0999 V2000
  -34.8821    2.6818  -41.4524 N   0  0  0  0  0  0  0  0  0  0  0  0
  -35.7614    2.6049  -42.6266 C   0  0  0  0  0  0  0  0  0  0  0  0
  -34.9854    2.0800  -43.8601 C   0  0  0  0  0  0  0  0  0  0  0  0
  -35.7816    2.6158  -45.0679 C   0  0  0  0  0  0  0  0  0  0  0  0
  -35.4360    4.0074  -45.6018 C   0  0  0  0  0  0  0  0  0  0  0  0
  -36.5560    3.8494  -44.5716 C   0  0  0  0  0  0  0  0  0  0  0  0
  -36.2148    4.0116  -43.0759 C   0  0  0  0  0  0  0  0  0  0  0  0
  -33.6292    3.8193  -41.6986 X   0  0  0  0  0  0  0  0  0  0  0  0
  1  2  1  0  0  0  0
  1  8  1  0  0  0  0
  2  3  1  0  0  0  0
  2  7  1  0  0  0  0
  3  4  1  0  0  0  0
  4  5  1  0  0  0  0
  4  6  1  0  0  0  0
  5  6  1  0  0  0  0
  6  7  1  0  0  0  0
M  END
> <Index>
12915

> <PropertyFieldDistance>
nan

$$$$
10155458
BBcorina  12272117083D 1   1.00000     0.00000 
CORINA 4.3.0 0026  30.10.2019
 13 13  0  0  0  0  0  0  0  0999 V2000
  -35.5489    0.0554  -45.1866 C   0  0  0  0  0  0  0  0  0  0  0  0
  -35.2356    1.4507  -44.9353 O   0  0  0  0  0  0  0  0  0  0  0  0
  -36.2420    2.2354  -44.5063 C   0  0  0  0  0  0  0  0  0  0  0  0
  -37.3517    1.7672  -44.3461 O   0  0  0  0  0  0  0  0  0  0  0  0
  -36.0186    3.5405  -44.2544 N   0  0  0  0  0  0  0  0  0  0  0  0
  -37.1066    4.4094  -43.7857 C   0  0  0  0  0  0  0  0  0  0  0  0
  -36.6631    5.1082  -42.4966 C   0  0  0  0  0  0  0  0  0  0  0  0
  -35.3376    5.8366  -42.7497 C   0  0  0  0  0  0  0  0  0  0  0  0
  -34.9056    6.5643  -41.4750 C   0  0  0  0  0  0  0  0  0  0  0  0
  -35.8784    7.6189  -41.1595 N   0  0  0  0  0  0  0  0  0  0  0  0
  -34.2623    4.8230  -43.1474 C   0  0  0  0  0  0  0  0  0  0  0  0
  -34.6821    4.1211  -44.4428 C   0  0  0  0  0  0  0  0  0  0  0  0
  -35.4323    8.4588  -39.7384 X   0  0  0  0  0  0  0  0  0  0  0  0
  1  2  1  0  0  0  0
  2  3  1  0  0  0  0
  3  4  2  0  0  0  0
  3  5  1  0  0  0  0
  5  6  1  0  0  0  0
  5 12  1  0  0  0  0
  6  7  1  0  0  0  0
  7  8  1  0  0  0  0
  8  9  1  0  0  0  0
  8 11  1  0  0  0  0
  9 10  1  0  0  0  0
 10 13  1  0  0  0  0
 11 12  1  0  0  0  0
M  END
> <Index>
12927

> <PropertyFieldDistance>
nan

$$$$
10123932
BBcorina  12272117083D 1   1.00000     0.00000 
CORINA 4.3.0 0026  30.10.2019
 10 10  0  0  0  0  0  0  0  0999 V2000
  -33.2294    6.3271  -44.3412 C   0  0  0  0  0  0  0  0  0  0  0  0
  -34.6306    6.3258  -43.9002 N   0  0  0  0  0  0  0  0  0  0  0  0
  -34.9171    5.1551  -43.0604 C   0  0  0  0  0  0  0  0  0  0  0  0
  -36.3871    5.1800  -42.5738 C   0  0  0  0  0  0  0  0  0  0  0  0
  -37.0866    4.3197  -43.6494 C   0  0  0  0  0  0  0  0  0  0  0  0
  -36.0449    3.4349  -44.1841 N   0  0  0  0  0  0  0  0  0  0  0  0
  -36.3100    2.2194  -44.9580 C   0  0  0  0  0  0  0  0  0  0  0  0
  -34.8165    3.8831  -43.8730 C   0  0  0  0  0  0  0  0  0  0  0  0
  -33.7784    3.3461  -44.1970 O   0  0  0  0  0  0  0  0  0  0  0  0
  -35.0168    7.7766  -43.0815 X   0  0  0  0  0  0  0  0  0  0  0  0
  1  2  1  0  0  0  0
  2  3  1  0  0  0  0
  2 10  1  0  0  0  0
  3  4  1  0  0  0  0
  3  8  1  0  0  0  0
  4  5  1  0  0  0  0
  5  6  1  0  0  0  0
  6  7  1  0  0  0  0
  6  8  1  0  0  0  0
  8  9  2  0  0  0  0
M  END
> <Index>
12930

> <PropertyFieldDistance>
nan

$$$$
17656788
BBcorina  12272117083D 1   1.00000     0.00000 
CORINA 4.3.0 0026  30.10.2019
  9 10  0  0  0  0  0  0  0  0999 V2000
  -35.9583    3.3361  -45.3629 C   0  0  0  0  0  0  0  0  0  0  0  0
  -36.1103    3.1742  -43.9109 N   0  0  0  0  0  0  0  0  0  0  0  0
  -37.1297    4.1399  -43.3733 C   0  0  0  0  0  0  0  0  0  0  0  0
  -36.3520    4.9484  -42.2892 C   0  0  0  0  0  0  0  0  0  0  0  0
  -35.3606    3.8472  -41.7681 C   0  0  0  0  0  0  0  0  0  0  0  0
  -34.8290    3.4802  -43.1998 C   0  0  0  0  0  0  0  0  0  0  0  0
  -34.4420    4.9033  -43.7085 C   0  0  0  0  0  0  0  0  0  0  0  0
  -35.4239    5.8184  -43.0782 N   0  0  0  0  0  0  0  0  0  0  0  0
  -36.2774    6.7103  -44.2614 X   0  0  0  0  0  0  0  0  0  0  0  0
  1  2  1  0  0  0  0
  2  3  1  0  0  0  0
  2  6  1  0  0  0  0
  3  4  1  0  0  0  0
  4  5  1  0  0  0  0
  4  8  1  0  0  0  0
  5  6  1  0  0  0  0
  6  7  1  0  0  0  0
  7  8  1  0  0  0  0
  8  9  1  0  0  0  0
M  END
> <Index>
12940

> <PropertyFieldDistance>
nan

$$$$
13427726
BBcorina  12272117083D 1   1.00000     0.00000 
CORINA 4.3.0 0026  30.10.2019
 12 12  0  0  0  0  0  0  0  0999 V2000
  -36.7782    2.0435  -44.7515 C   0  0  0  0  0  0  0  0  0  0  0  0
  -36.1480    3.3251  -44.4076 N   0  0  0  0  0  0  0  0  0  0  0  0
  -36.9374    4.0468  -43.3803 C   0  0  0  0  0  0  0  0  0  0  0  0
  -36.4093    5.4242  -42.9372 C   0  0  0  0  0  0  0  0  0  0  0  0
  -35.0197    5.1753  -42.4046 N   0  0  0  0  0  0  0  0  0  0  0  0
  -34.9827    5.3186  -40.9432 C   0  0  0  0  0  0  0  0  0  0  0  0
  -34.1344    6.1690  -43.0588 C   0  0  0  0  0  0  0  0  0  0  0  0
  -34.0900    6.1555  -44.5983 C   0  0  0  0  0  0  0  0  0  0  0  0
  -33.6378    4.7674  -44.9798 N   0  0  0  0  0  0  0  0  0  0  0  0
  -34.5902    4.2822  -46.0076 C   0  0  0  0  0  0  0  0  0  0  0  0
  -36.0776    4.2331  -45.6105 C   0  0  0  0  0  0  0  0  0  0  0  0
  -32.0393    4.7890  -45.5870 X   0  0  0  0  0  0  0  0  0  0  0  0
  1  2  1  0  0  0  0
  2  3  1  0  0  0  0
  2 11  1  0  0  0  0
  3  4  1  0  0  0  0
  4  5  1  0  0  0  0
  5  6  1  0  0  0  0
  5  7  1  0  0  0  0
  7  8  1  0  0  0  0
  8  9  1  0  0  0  0
  9 10  1  0  0  0  0
  9 12  1  0  0  0  0
 10 11  1  0  0  0  0
M  END
> <Index>
12944

> <PropertyFieldDistance>
nan

$$$$
15114278
BBcorina  12272117083D 1   1.00000     0.00000 
CORINA 4.3.0 0026  30.10.2019
 12 12  0  0  0  0  0  0  0  0999 V2000
  -35.9880    4.1879  -44.2902 N   0  0  0  0  0  0  0  0  0  0  0  0
  -36.4637    4.2773  -42.8669 C   0  0  0  0  0  0  0  0  0  0  0  0
  -37.8750    4.8614  -42.8773 C   0  0  0  0  0  0  0  0  0  0  0  0
  -37.8941    6.1789  -42.1002 C   0  0  0  0  0  0  0  0  0  0  0  0
  -37.4849    7.3256  -43.0265 C   0  0  0  0  0  0  0  0  0  0  0  0
  -36.0927    7.8266  -42.6382 C   0  0  0  0  0  0  0  0  0  0  0  0
  -35.3121    8.2026  -43.8990 C   0  0  0  0  0  0  0  0  0  0  0  0
  -33.9732    7.4631  -43.9126 C   0  0  0  0  0  0  0  0  0  0  0  0
  -34.1126    6.1633  -44.7080 C   0  0  0  0  0  0  0  0  0  0  0  0
  -33.7079    4.9797  -43.8278 C   0  0  0  0  0  0  0  0  0  0  0  0
  -34.5527    3.7574  -44.1756 C   0  0  0  0  0  0  0  0  0  0  0  0
  -36.8260    2.8261  -44.9729 X   0  0  0  0  0  0  0  0  0  0  0  0
  1  2  1  0  0  0  0
  1 11  1  0  0  0  0
  1 12  1  0  0  0  0
  2  3  1  0  0  0  0
  3  4  1  0  0  0  0
  4  5  1  0  0  0  0
  5  6  1  0  0  0  0
  6  7  1  0  0  0  0
  7  8  1  0  0  0  0
  8  9  1  0  0  0  0
  9 10  1  0  0  0  0
 10 11  1  0  0  0  0
M  END
> <Index>
12950

> <PropertyFieldDistance>
nan

$$$$
10954574
BBcorina  12272117083D 1   1.00000     0.00000 
CORINA 4.3.0 0026  30.10.2019
  8  8  0  0  0  0  0  0  0  0999 V2000
  -35.6299    2.5039  -47.0984 C   0  0  0  0  0  0  0  0  0  0  0  0
  -36.1173    1.6153  -45.9831 C   0  0  0  0  0  0  0  0  0  0  0  0
  -36.3012    0.4390  -46.1849 O   0  0  0  0  0  0  0  0  0  0  0  0
  -36.3752    2.1946  -44.6161 C   0  0  0  0  0  0  0  0  0  0  0  0
  -36.1788    1.2739  -43.4101 C   0  0  0  0  0  0  0  0  0  0  0  0
  -37.5900    1.6740  -43.8454 C   0  0  0  0  0  0  0  0  0  0  0  0
  -36.0240    3.6116  -44.4520 N   0  0  0  0  0  0  0  0  0  0  0  0
  -36.8730    4.3053  -43.1397 X   0  0  0  0  0  0  0  0  0  0  0  0
  1  2  1  0  0  0  0
  2  3  2  0  0  0  0
  2  4  1  0  0  0  0
  4  5  1  0  0  0  0
  4  6  1  0  0  0  0
  4  7  1  0  0  0  0
  5  6  1  0  0  0  0
  7  8  1  0  0  0  0
M  END
> <Index>
12951

> <PropertyFieldDistance>
nan

$$$$
11560706
BBcorina  12272117083D 1   1.00000     0.00000 
CORINA 4.3.0 0026  30.10.2019
 12 14  0  0  0  0  0  0  0  0999 V2000
  -38.1891    6.6003  -43.9995 N   0  0  0  0  0  0  0  0  0  0  0  0
  -36.8124    6.4971  -43.4973 C   0  0  0  0  0  0  0  0  0  0  0  0
  -35.8432    6.3843  -44.6784 C   0  0  0  0  0  0  0  0  0  0  0  0
  -34.4100    6.2992  -44.1437 C   0  0  0  0  0  0  0  0  0  0  0  0
  -34.2775    5.0502  -43.2667 C   0  0  0  0  0  0  0  0  0  0  0  0
  -35.2462    5.1616  -42.0854 C   0  0  0  0  0  0  0  0  0  0  0  0
  -36.6789    5.2481  -42.6206 C   0  0  0  0  0  0  0  0  0  0  0  0
  -36.9715    4.0069  -43.4688 C   0  0  0  0  0  0  0  0  0  0  0  0
  -36.0193    3.9435  -44.5856 N   0  0  0  0  0  0  0  0  0  0  0  0
  -34.6402    3.8149  -44.0960 C   0  0  0  0  0  0  0  0  0  0  0  0
  -36.1714    5.1193  -45.4767 C   0  0  0  0  0  0  0  0  0  0  0  0
  -38.5794    8.2187  -44.3900 X   0  0  0  0  0  0  0  0  0  0  0  0
  1  2  1  0  0  0  0
  1 12  1  0  0  0  0
  2  3  1  0  0  0  0
  2  7  1  0  0  0  0
  3  4  1  0  0  0  0
  3 11  1  0  0  0  0
  4  5  1  0  0  0  0
  5  6  1  0  0  0  0
  5 10  1  0  0  0  0
  6  7  1  0  0  0  0
  7  8  1  0  0  0  0
  8  9  1  0  0  0  0
  9 10  1  0  0  0  0
  9 11  1  0  0  0  0
M  END
> <Index>
12962

> <PropertyFieldDistance>
nan

$$$$
11571690
BBcorina  12272117083D 1   1.00000     0.00000 
CORINA 4.3.0 0026  30.10.2019
 13 13  0  0  0  0  0  0  0  0999 V2000
  -35.5655    3.7872  -47.8907 C   0  0  0  0  0  0  0  0  0  0  0  0
  -35.3272    3.2225  -46.5998 O   0  0  0  0  0  0  0  0  0  0  0  0
  -36.4652    2.5718  -46.0310 C   0  0  0  0  0  0  0  0  0  0  0  0
  -36.0965    2.0080  -44.6572 C   0  0  0  0  0  0  0  0  0  0  0  0
  -35.8316    3.1151  -43.7286 N   0  0  0  0  0  0  0  0  0  0  0  0
  -36.9612    4.0546  -43.6933 C   0  0  0  0  0  0  0  0  0  0  0  0
  -38.2381    3.3041  -43.3099 C   0  0  0  0  0  0  0  0  0  0  0  0
  -36.6806    5.1468  -42.6586 C   0  0  0  0  0  0  0  0  0  0  0  0
  -35.4331    5.8405  -43.0083 N   0  0  0  0  0  0  0  0  0  0  0  0
  -34.3036    4.9010  -43.0436 C   0  0  0  0  0  0  0  0  0  0  0  0
  -34.5841    3.8087  -44.0783 C   0  0  0  0  0  0  0  0  0  0  0  0
  -33.4284    2.8062  -44.0891 C   0  0  0  0  0  0  0  0  0  0  0  0
  -35.1247    7.1292  -41.9273 X   0  0  0  0  0  0  0  0  0  0  0  0
  1  2  1  0  0  0  0
  2  3  1  0  0  0  0
  3  4  1  0  0  0  0
  4  5  1  0  0  0  0
  5  6  1  0  0  0  0
  5 11  1  0  0  0  0
  6  7  1  0  0  0  0
  6  8  1  0  0  0  0
  8  9  1  0  0  0  0
  9 10  1  0  0  0  0
  9 13  1  0  0  0  0
 10 11  1  0  0  0  0
 11 12  1  0  0  0  0
M  END
> <Index>
12967

> <PropertyFieldDistance>
nan

$$$$
10893476
BBcorina  12272117083D 1   1.00000     0.00000 
CORINA 4.3.0 0026  30.10.2019
 12 13  0  0  0  0  0  0  0  0999 V2000
  -38.1301    2.3261  -42.0137 N   0  0  0  0  0  0  0  0  0  0  0  0
  -38.0469    3.0955  -43.2624 C   0  0  0  0  0  0  0  0  0  0  0  0
  -37.9281    4.6088  -42.9590 C   0  0  0  0  0  0  0  0  0  0  0  0
  -36.4011    4.8090  -42.9643 C   0  0  0  0  0  0  0  0  0  0  0  0
  -36.0373    6.1545  -43.5975 C   0  0  0  0  0  0  0  0  0  0  0  0
  -34.5208    6.3025  -43.6708 C   0  0  0  0  0  0  0  0  0  0  0  0
  -33.7967    4.9644  -43.7161 C   0  0  0  0  0  0  0  0  0  0  0  0
  -34.5760    3.9292  -44.5343 C   0  0  0  0  0  0  0  0  0  0  0  0
  -35.8854    3.7523  -43.8640 N   0  0  0  0  0  0  0  0  0  0  0  0
  -36.7715    2.7597  -44.0074 C   0  0  0  0  0  0  0  0  0  0  0  0
  -36.5832    1.7419  -44.6396 O   0  0  0  0  0  0  0  0  0  0  0  0
  -36.8172    2.6908  -40.9805 X   0  0  0  0  0  0  0  0  0  0  0  0
  1  2  1  0  0  0  0
  1 12  1  0  0  0  0
  2  3  1  0  0  0  0
  2 10  1  0  0  0  0
  3  4  1  0  0  0  0
  4  5  1  0  0  0  0
  4  9  1  0  0  0  0
  5  6  1  0  0  0  0
  6  7  1  0  0  0  0
  7  8  1  0  0  0  0
  8  9  1  0  0  0  0
  9 10  1  0  0  0  0
 10 11  2  0  0  0  0
M  END
> <Index>
12970

> <PropertyFieldDistance>
nan

$$$$
9457450
BBcorina  12272117083D 1   1.00000     0.00000 
CORINA 4.3.0 0026  30.10.2019
  9  9  0  0  0  0  0  0  0  0999 V2000
  -37.2230    3.9709  -41.4213 C   0  0  0  0  0  0  0  0  0  0  0  0
  -36.4718    4.8299  -42.4406 C   0  0  0  0  0  0  0  0  0  0  0  0
  -36.6225    6.3139  -42.1002 C   0  0  0  0  0  0  0  0  0  0  0  0
  -36.9950    4.5509  -43.8660 C   0  0  0  0  0  0  0  0  0  0  0  0
  -36.0629    3.5284  -44.4152 N   0  0  0  0  0  0  0  0  0  0  0  0
  -34.7280    3.9539  -43.9212 C   0  0  0  0  0  0  0  0  0  0  0  0
  -34.9806    4.4371  -42.4769 C   0  0  0  0  0  0  0  0  0  0  0  0
  -34.7201    3.3828  -41.5481 O   0  0  0  0  0  0  0  0  0  0  0  0
  -36.1063    3.5093  -46.1245 X   0  0  0  0  0  0  0  0  0  0  0  0
  1  2  1  0  0  0  0
  2  3  1  0  0  0  0
  2  4  1  0  0  0  0
  2  7  1  0  0  0  0
  4  5  1  0  0  0  0
  5  6  1  0  0  0  0
  5  9  1  0  0  0  0
  6  7  1  0  0  0  0
  7  8  1  0  0  0  0
M  END
> <Index>
12979

> <PropertyFieldDistance>
nan

$$$$
11985940
BBcorina  12272117083D 1   1.00000     0.00000 
CORINA 4.3.0 0026  30.10.2019
 10 10  0  0  0  0  0  0  0  0999 V2000
  -36.4728    4.0852  -41.3799 C   0  0  0  0  0  0  0  0  0  0  0  0
  -36.6585    5.1099  -42.5008 C   0  0  0  0  0  0  0  0  0  0  0  0
  -37.0291    4.3869  -43.7977 C   0  0  0  0  0  0  0  0  0  0  0  0
  -35.9480    3.4664  -44.1723 N   0  0  0  0  0  0  0  0  0  0  0  0
  -34.6958    4.1916  -44.4226 C   0  0  0  0  0  0  0  0  0  0  0  0
  -34.2559    4.9088  -43.1442 C   0  0  0  0  0  0  0  0  0  0  0  0
  -32.9631    5.6821  -43.4115 C   0  0  0  0  0  0  0  0  0  0  0  0
  -35.3535    5.8833  -42.7079 C   0  0  0  0  0  0  0  0  0  0  0  0
  -34.9728    6.5142  -41.4836 O   0  0  0  0  0  0  0  0  0  0  0  0
  -36.3899    2.5211  -45.5270 X   0  0  0  0  0  0  0  0  0  0  0  0
  1  2  1  0  0  0  0
  2  3  1  0  0  0  0
  2  8  1  0  0  0  0
  3  4  1  0  0  0  0
  4  5  1  0  0  0  0
  4 10  1  0  0  0  0
  5  6  1  0  0  0  0
  6  7  1  0  0  0  0
  6  8  1  0  0  0  0
  8  9  1  0  0  0  0
M  END
> <Index>
12981

> <PropertyFieldDistance>
nan

$$$$
14248744
BBcorina  12272117083D 1   1.00000     0.00000 
CORINA 4.3.0 0026  30.10.2019
 10 11  0  0  0  0  0  0  0  0999 V2000
  -35.6559    4.7979  -42.0741 N   0  0  0  0  0  0  0  0  0  0  0  0
  -34.9715    4.3223  -43.2838 C   0  0  0  0  0  0  0  0  0  0  0  0
  -34.2815    2.9887  -42.9907 C   0  0  0  0  0  0  0  0  0  0  0  0
  -35.3186    1.9163  -42.6513 C   0  0  0  0  0  0  0  0  0  0  0  0
  -36.3318    1.8156  -43.8049 C   0  0  0  0  0  0  0  0  0  0  0  0
  -35.5290    1.8035  -45.1263 C   0  0  0  0  0  0  0  0  0  0  0  0
  -35.3163    3.2780  -45.5140 C   0  0  0  0  0  0  0  0  0  0  0  0
  -35.9996    4.1180  -44.4103 C   0  0  0  0  0  0  0  0  0  0  0  0
  -37.0910    3.1679  -43.8503 C   0  0  0  0  0  0  0  0  0  0  0  0
  -34.5780    5.6478  -41.0543 X   0  0  0  0  0  0  0  0  0  0  0  0
  1  2  1  0  0  0  0
  1 10  1  0  0  0  0
  2  3  1  0  0  0  0
  2  8  1  0  0  0  0
  3  4  1  0  0  0  0
  4  5  1  0  0  0  0
  5  6  1  0  0  0  0
  5  9  1  0  0  0  0
  6  7  1  0  0  0  0
  7  8  1  0  0  0  0
  8  9  1  0  0  0  0
M  END
> <Index>
12987

> <PropertyFieldDistance>
nan

$$$$
13267874
BBcorina  12272117083D 1   1.00000     0.00000 
CORINA 4.3.0 0026  30.10.2019
 10 11  0  0  0  0  0  0  0  0999 V2000
  -37.2092    3.8769  -43.5477 N   0  0  0  0  0  0  0  0  0  0  0  0
  -36.7953    2.4676  -43.5667 C   0  0  0  0  0  0  0  0  0  0  0  0
  -36.1392    2.1507  -44.9120 C   0  0  0  0  0  0  0  0  0  0  0  0
  -34.8486    2.9777  -45.0475 C   0  0  0  0  0  0  0  0  0  0  0  0
  -35.1610    4.4288  -44.6150 C   0  0  0  0  0  0  0  0  0  0  0  0
  -34.9534    4.4774  -43.0896 C   0  0  0  0  0  0  0  0  0  0  0  0
  -34.5244    3.0535  -42.6664 C   0  0  0  0  0  0  0  0  0  0  0  0
  -33.8768    2.4698  -43.9498 C   0  0  0  0  0  0  0  0  0  0  0  0
  -35.8124    2.2131  -42.4223 C   0  0  0  0  0  0  0  0  0  0  0  0
  -38.2444    4.1938  -42.2240 X   0  0  0  0  0  0  0  0  0  0  0  0
  1  2  1  0  0  0  0
  1 10  1  0  0  0  0
  2  3  1  0  0  0  0
  2  9  1  0  0  0  0
  3  4  1  0  0  0  0
  4  5  1  0  0  0  0
  4  8  1  0  0  0  0
  5  6  1  0  0  0  0
  6  7  1  0  0  0  0
  7  8  1  0  0  0  0
  7  9  1  0  0  0  0
M  END
> <Index>
12988

> <PropertyFieldDistance>
nan

$$$$
13422130
BBcorina  12272117083D 1   1.00000     0.00000 
CORINA 4.3.0 0026  30.10.2019
  9  9  0  0  0  0  0  0  0  0999 V2000
  -34.1445    5.8271  -42.5928 N   0  0  0  0  0  0  0  0  0  0  0  0
  -34.9432    4.5944  -42.5752 C   0  0  0  0  0  0  0  0  0  0  0  0
  -36.4484    4.9238  -42.5051 C   0  0  0  0  0  0  0  0  0  0  0  0
  -37.0008    4.3316  -43.7832 C   0  0  0  0  0  0  0  0  0  0  0  0
  -38.1623    4.3674  -44.1291 O   0  0  0  0  0  0  0  0  0  0  0  0
  -36.0039    3.7621  -44.4718 N   0  0  0  0  0  0  0  0  0  0  0  0
  -34.8046    3.8456  -43.8828 C   0  0  0  0  0  0  0  0  0  0  0  0
  -33.7709    3.3952  -44.3278 O   0  0  0  0  0  0  0  0  0  0  0  0
  -34.6161    6.8446  -43.8837 X   0  0  0  0  0  0  0  0  0  0  0  0
  1  2  1  0  0  0  0
  1  9  1  0  0  0  0
  2  3  1  0  0  0  0
  2  7  1  0  0  0  0
  3  4  1  0  0  0  0
  4  5  2  0  0  0  0
  4  6  1  0  0  0  0
  6  7  1  0  0  0  0
  7  8  2  0  0  0  0
M  END
> <Index>
12989

> <PropertyFieldDistance>
nan

$$$$
14521386
BBcorina  12272117083D 1   1.00000     0.00000 
CORINA 4.3.0 0026  30.10.2019
 11 12  0  0  0  0  0  0  0  0999 V2000
  -33.4320    5.1571  -43.7028 N   0  0  0  0  0  0  0  0  0  0  0  0
  -34.3801    4.0184  -43.6996 C   0  0  0  0  0  0  0  0  0  0  0  0
  -35.2295    4.1049  -44.9588 C   0  0  0  0  0  0  0  0  0  0  0  0
  -36.4437    3.1893  -44.9212 C   0  0  0  0  0  0  0  0  0  0  0  0
  -36.0500    1.7201  -44.9643 C   0  0  0  0  0  0  0  0  0  0  0  0
  -35.3339    1.2606  -43.7051 C   0  0  0  0  0  0  0  0  0  0  0  0
  -36.0254    1.7063  -42.4273 C   0  0  0  0  0  0  0  0  0  0  0  0
  -36.4194    3.1761  -42.4467 C   0  0  0  0  0  0  0  0  0  0  0  0
  -35.2043    4.0910  -42.4229 C   0  0  0  0  0  0  0  0  0  0  0  0
  -37.2799    3.4745  -43.6741 C   0  0  0  0  0  0  0  0  0  0  0  0
  -32.0000    4.7598  -44.5488 X   0  0  0  0  0  0  0  0  0  0  0  0
  1  2  1  0  0  0  0
  1 11  1  0  0  0  0
  2  3  1  0  0  0  0
  2  9  1  0  0  0  0
  3  4  1  0  0  0  0
  4  5  1  0  0  0  0
  4 10  1  0  0  0  0
  5  6  1  0  0  0  0
  6  7  1  0  0  0  0
  7  8  1  0  0  0  0
  8  9  1  0  0  0  0
  8 10  1  0  0  0  0
M  END
> <Index>
12990

> <PropertyFieldDistance>
nan

$$$$
17828764
BBcorina  12272117083D 1   1.00000     0.00000 
CORINA 4.3.0 0026  30.10.2019
  9  9  0  0  0  0  0  0  0  0999 V2000
  -38.2499    6.7761  -44.0041 C   0  0  0  0  0  0  0  0  0  0  0  0
  -37.3531    5.7723  -44.7315 C   0  0  0  0  0  0  0  0  0  0  0  0
  -37.9999    5.3811  -46.0617 C   0  0  0  0  0  0  0  0  0  0  0  0
  -36.0769    6.3659  -44.9788 O   0  0  0  0  0  0  0  0  0  0  0  0
  -37.1758    4.5246  -43.8641 C   0  0  0  0  0  0  0  0  0  0  0  0
  -36.4847    4.8057  -42.5225 C   0  0  0  0  0  0  0  0  0  0  0  0
  -35.7854    3.4673  -42.7990 C   0  0  0  0  0  0  0  0  0  0  0  0
  -36.0032    3.7116  -44.2370 N   0  0  0  0  0  0  0  0  0  0  0  0
  -36.4812    2.2776  -45.0366 X   0  0  0  0  0  0  0  0  0  0  0  0
  1  2  1  0  0  0  0
  2  3  1  0  0  0  0
  2  4  1  0  0  0  0
  2  5  1  0  0  0  0
  5  6  1  0  0  0  0
  5  8  1  0  0  0  0
  6  7  1  0  0  0  0
  7  8  1  0  0  0  0
  8  9  1  0  0  0  0
M  END
> <Index>
12991

> <PropertyFieldDistance>
nan

$$$$
13267994
BBcorina  12272117083D 1   1.00000     0.00000 
CORINA 4.3.0 0026  30.10.2019
 10 11  0  0  0  0  0  0  0  0999 V2000
  -34.5617    2.4674  -41.5732 N   0  0  0  0  0  0  0  0  0  0  0  0
  -34.6228    3.3098  -42.7751 C   0  0  0  0  0  0  0  0  0  0  0  0
  -35.9155    4.1296  -42.7583 C   0  0  0  0  0  0  0  0  0  0  0  0
  -36.7543    3.7883  -43.9971 C   0  0  0  0  0  0  0  0  0  0  0  0
  -35.9393    4.1430  -45.2478 C   0  0  0  0  0  0  0  0  0  0  0  0
  -34.6466    3.3232  -45.2646 C   0  0  0  0  0  0  0  0  0  0  0  0
  -34.5970    2.4201  -44.0250 C   0  0  0  0  0  0  0  0  0  0  0  0
  -35.8596    1.5704  -44.0175 C   0  0  0  0  0  0  0  0  0  0  0  0
  -36.9847    2.2839  -44.0087 C   0  0  0  0  0  0  0  0  0  0  0  0
  -35.8295    1.3199  -41.5640 X   0  0  0  0  0  0  0  0  0  0  0  0
  1  2  1  0  0  0  0
  1 10  1  0  0  0  0
  2  3  1  0  0  0  0
  2  7  1  0  0  0  0
  3  4  1  0  0  0  0
  4  5  1  0  0  0  0
  4  9  1  0  0  0  0
  5  6  1  0  0  0  0
  6  7  1  0  0  0  0
  7  8  1  0  0  0  0
  8  9  2  0  0  0  0
M  END
> <Index>
12994

> <PropertyFieldDistance>
nan

$$$$
12525310
BBcorina  12272117083D 1   1.00000     0.00000 
CORINA 4.3.0 0026  30.10.2019
 11 12  0  0  0  0  0  0  0  0999 V2000
  -38.2274    5.4112  -44.1307 C   0  0  0  0  0  0  0  0  0  0  0  0
  -37.1461    5.3817  -43.0487 C   0  0  0  0  0  0  0  0  0  0  0  0
  -36.5078    3.9844  -42.9966 C   0  0  0  0  0  0  0  0  0  0  0  0
  -35.2365    4.0775  -42.1216 C   0  0  0  0  0  0  0  0  0  0  0  0
  -34.1101    4.4607  -43.1290 C   0  0  0  0  0  0  0  0  0  0  0  0
  -34.8167    4.5591  -44.5006 C   0  0  0  0  0  0  0  0  0  0  0  0
  -35.3320    5.9982  -44.6619 C   0  0  0  0  0  0  0  0  0  0  0  0
  -36.0610    6.4104  -43.3798 C   0  0  0  0  0  0  0  0  0  0  0  0
  -36.6629    7.6929  -43.5667 O   0  0  0  0  0  0  0  0  0  0  0  0
  -36.0066    3.6777  -44.3628 N   0  0  0  0  0  0  0  0  0  0  0  0
  -35.5682    2.0305  -44.4992 X   0  0  0  0  0  0  0  0  0  0  0  0
  1  2  1  0  0  0  0
  2  3  1  0  0  0  0
  2  8  1  0  0  0  0
  3  4  1  0  0  0  0
  3 10  1  0  0  0  0
  4  5  1  0  0  0  0
  5  6  1  0  0  0  0
  6  7  1  0  0  0  0
  6 10  1  0  0  0  0
  7  8  1  0  0  0  0
  8  9  1  0  0  0  0
 10 11  1  0  0  0  0
M  END
> <Index>
12997

> <PropertyFieldDistance>
nan

$$$$
7877424
BBcorina  12272117083D 1   1.00000     0.00000 
CORINA 4.3.0 0026  30.10.2019
  9  9  0  0  0  0  0  0  0  0999 V2000
  -33.0334    6.2175  -43.4548 C   0  0  0  0  0  0  0  0  0  0  0  0
  -34.4788    6.2102  -43.1920 N   0  0  0  0  0  0  0  0  0  0  0  0
  -34.9300    4.8783  -42.7674 C   0  0  0  0  0  0  0  0  0  0  0  0
  -36.4463    4.8916  -42.4646 C   0  0  0  0  0  0  0  0  0  0  0  0
  -37.0413    4.4352  -43.8151 C   0  0  0  0  0  0  0  0  0  0  0  0
  -35.9837    3.6513  -44.4640 N   0  0  0  0  0  0  0  0  0  0  0  0
  -34.7864    3.8849  -43.8992 C   0  0  0  0  0  0  0  0  0  0  0  0
  -33.7431    3.3733  -44.2464 O   0  0  0  0  0  0  0  0  0  0  0  0
  -34.8971    7.3970  -42.0341 X   0  0  0  0  0  0  0  0  0  0  0  0
  1  2  1  0  0  0  0
  2  3  1  0  0  0  0
  2  9  1  0  0  0  0
  3  4  1  0  0  0  0
  3  7  1  0  0  0  0
  4  5  1  0  0  0  0
  5  6  1  0  0  0  0
  6  7  1  0  0  0  0
  7  8  2  0  0  0  0
M  END
> <Index>
12998

> <PropertyFieldDistance>
nan

$$$$
15259314
BBcorina  12272117083D 1   1.00000     0.00000 
CORINA 4.3.0 0026  30.10.2019
  9  9  0  0  0  0  0  0  0  0999 V2000
  -34.7260    3.4073  -41.5672 F   0  0  0  0  0  0  0  0  0  0  0  0
  -34.9803    4.4382  -42.4781 C   0  0  0  0  0  0  0  0  0  0  0  0
  -36.4720    4.8297  -42.4413 C   0  0  0  0  0  0  0  0  0  0  0  0
  -36.9955    4.5501  -43.8664 C   0  0  0  0  0  0  0  0  0  0  0  0
  -36.9500    5.7760  -44.6799 C   0  0  0  0  0  0  0  0  0  0  0  0
  -36.9149    6.7222  -45.3076 N   0  0  0  0  0  0  0  0  0  0  0  0
  -36.0642    3.5302  -44.4138 N   0  0  0  0  0  0  0  0  0  0  0  0
  -34.7261    3.9531  -43.9215 C   0  0  0  0  0  0  0  0  0  0  0  0
  -36.1112    3.5121  -46.1231 X   0  0  0  0  0  0  0  0  0  0  0  0
  1  2  1  0  0  0  0
  2  3  1  0  0  0  0
  2  8  1  0  0  0  0
  3  4  1  0  0  0  0
  4  5  1  0  0  0  0
  4  7  1  0  0  0  0
  5  6  3  0  0  0  0
  7  8  1  0  0  0  0
  7  9  1  0  0  0  0
M  END
> <Index>
12999

> <PropertyFieldDistance>
nan

$$$$
10862074
BBcorina  12272117083D 1   1.00000     0.00000 
CORINA 4.3.0 0026  30.10.2019
  9  9  0  0  0  0  0  0  0  0999 V2000
  -32.8471    4.9088  -42.7406 C   0  0  0  0  0  0  0  0  0  0  0  0
  -34.2769    5.0496  -43.2665 C   0  0  0  0  0  0  0  0  0  0  0  0
  -35.2462    5.1676  -42.0869 C   0  0  0  0  0  0  0  0  0  0  0  0
  -36.6793    5.2476  -42.6202 C   0  0  0  0  0  0  0  0  0  0  0  0
  -37.5940    5.3015  -41.5236 O   0  0  0  0  0  0  0  0  0  0  0  0
  -36.9723    4.0086  -43.4695 C   0  0  0  0  0  0  0  0  0  0  0  0
  -36.0191    3.9414  -44.5845 N   0  0  0  0  0  0  0  0  0  0  0  0
  -34.6396    3.8164  -44.0970 C   0  0  0  0  0  0  0  0  0  0  0  0
  -36.4111    2.6622  -45.6494 X   0  0  0  0  0  0  0  0  0  0  0  0
  1  2  1  0  0  0  0
  2  3  1  0  0  0  0
  2  8  1  0  0  0  0
  3  4  1  0  0  0  0
  4  5  1  0  0  0  0
  4  6  1  0  0  0  0
  6  7  1  0  0  0  0
  7  8  1  0  0  0  0
  7  9  1  0  0  0  0
M  END
> <Index>
13000

> <PropertyFieldDistance>
nan

$$$$
15608458
BBcorina  12272117083D 1   1.00000     0.00000 
CORINA 4.3.0 0026  30.10.2019
 14 14  0  0  0  0  0  0  0  0999 V2000
  -38.7780    3.3063  -47.5903 F   0  0  0  0  0  0  0  0  0  0  0  0
  -37.5618    2.8133  -48.0747 C   0  0  0  0  0  0  0  0  0  0  0  0
  -37.1247    3.6119  -49.1371 F   0  0  0  0  0  0  0  0  0  0  0  0
  -37.7358    1.4987  -48.5205 F   0  0  0  0  0  0  0  0  0  0  0  0
  -36.5879    2.8368  -47.0292 O   0  0  0  0  0  0  0  0  0  0  0  0
  -36.9388    2.0483  -45.8902 C   0  0  0  0  0  0  0  0  0  0  0  0
  -35.8304    2.1471  -44.8403 C   0  0  0  0  0  0  0  0  0  0  0  0
  -35.7401    3.5298  -44.3522 N   0  0  0  0  0  0  0  0  0  0  0  0
  -36.8411    3.8349  -43.4280 C   0  0  0  0  0  0  0  0  0  0  0  0
  -36.7569    5.3035  -43.0055 C   0  0  0  0  0  0  0  0  0  0  0  0
  -35.4554    5.5539  -42.3705 N   0  0  0  0  0  0  0  0  0  0  0  0
  -34.3544    5.2488  -43.2948 C   0  0  0  0  0  0  0  0  0  0  0  0
  -34.4386    3.7802  -43.7173 C   0  0  0  0  0  0  0  0  0  0  0  0
  -35.3505    7.1634  -41.8023 X   0  0  0  0  0  0  0  0  0  0  0  0
  1  2  1  0  0  0  0
  2  3  1  0  0  0  0
  2  4  1  0  0  0  0
  2  5  1  0  0  0  0
  5  6  1  0  0  0  0
  6  7  1  0  0  0  0
  7  8  1  0  0  0  0
  8  9  1  0  0  0  0
  8 13  1  0  0  0  0
  9 10  1  0  0  0  0
 10 11  1  0  0  0  0
 11 12  1  0  0  0  0
 11 14  1  0  0  0  0
 12 13  1  0  0  0  0
M  END
> <Index>
13011

> <PropertyFieldDistance>
nan

$$$$
12311280
BBcorina  12272117083D 1   1.00000     0.00000 
CORINA 4.3.0 0026  30.10.2019
 12 12  0  0  0  0  0  0  0  0999 V2000
  -34.0244    5.3090  -39.0554 N   0  0  0  0  0  0  0  0  0  0  0  0
  -35.1220    6.3835  -39.6743 S   0  0  0  0  0  0  0  0  0  0  0  0
  -34.7173    7.6712  -39.2304 O   0  0  0  0  0  0  0  0  0  0  0  0
  -36.4082    5.8395  -39.4113 O   0  0  0  0  0  0  0  0  0  0  0  0
  -34.9395    6.3776  -41.3202 N   0  0  0  0  0  0  0  0  0  0  0  0
  -35.2462    5.1675  -42.0868 C   0  0  0  0  0  0  0  0  0  0  0  0
  -36.6793    5.2476  -42.6203 C   0  0  0  0  0  0  0  0  0  0  0  0
  -36.9723    4.0086  -43.4694 C   0  0  0  0  0  0  0  0  0  0  0  0
  -36.0191    3.9414  -44.5845 N   0  0  0  0  0  0  0  0  0  0  0  0
  -34.6396    3.8164  -44.0971 C   0  0  0  0  0  0  0  0  0  0  0  0
  -34.2769    5.0496  -43.2664 C   0  0  0  0  0  0  0  0  0  0  0  0
  -36.4111    2.6624  -45.6495 X   0  0  0  0  0  0  0  0  0  0  0  0
  1  2  1  0  0  0  0
  2  3  2  0  0  0  0
  2  4  2  0  0  0  0
  2  5  1  0  0  0  0
  5  6  1  0  0  0  0
  6  7  1  0  0  0  0
  6 11  1  0  0  0  0
  7  8  1  0  0  0  0
  8  9  1  0  0  0  0
  9 10  1  0  0  0  0
  9 12  1  0  0  0  0
 10 11  1  0  0  0  0
M  END
> <Index>
13016

> <PropertyFieldDistance>
nan

$$$$
10862532
BBcorina  12272117083D 1   1.00000     0.00000 
CORINA 4.3.0 0026  30.10.2019
 11 11  0  0  0  0  0  0  0  0999 V2000
  -31.3924    7.6128  -41.6068 C   0  0  0  0  0  0  0  0  0  0  0  0
  -32.2678    6.5292  -41.9255 O   0  0  0  0  0  0  0  0  0  0  0  0
  -33.6555    6.8612  -41.8488 C   0  0  0  0  0  0  0  0  0  0  0  0
  -34.4943    5.6331  -42.2080 C   0  0  0  0  0  0  0  0  0  0  0  0
  -35.9048    5.9490  -42.0111 C   0  0  0  0  0  0  0  0  0  0  0  0
  -36.8194    4.7427  -42.3102 C   0  0  0  0  0  0  0  0  0  0  0  0
  -36.9707    4.6167  -43.8017 C   0  0  0  0  0  0  0  0  0  0  0  0
  -35.9918    3.6824  -44.4012 N   0  0  0  0  0  0  0  0  0  0  0  0
  -34.6188    3.7972  -43.8607 C   0  0  0  0  0  0  0  0  0  0  0  0
  -34.1865    5.2246  -43.6639 C   0  0  0  0  0  0  0  0  0  0  0  0
  -36.5518    2.0690  -44.3142 X   0  0  0  0  0  0  0  0  0  0  0  0
  1  2  1  0  0  0  0
  2  3  1  0  0  0  0
  3  4  1  0  0  0  0
  4  5  1  0  0  0  0
  4 10  1  0  0  0  0
  5  6  1  0  0  0  0
  6  7  1  0  0  0  0
  7  8  1  0  0  0  0
  8  9  1  0  0  0  0
  8 11  1  0  0  0  0
  9 10  1  0  0  0  0
M  END
> <Index>
13019

> <PropertyFieldDistance>
nan

$$$$
14416762
BBcorina  12272117083D 1   1.00000     0.00000 
CORINA 4.3.0 0026  30.10.2019
 14 15  0  0  0  0  0  0  0  0999 V2000
  -36.0071    3.5608  -44.3090 N   0  0  0  0  0  0  0  0  0  0  0  0
  -36.9646    4.5737  -43.8361 C   0  0  0  0  0  0  0  0  0  0  0  0
  -36.6501    4.8976  -42.3726 C   0  0  0  0  0  0  0  0  0  0  0  0
  -35.2300    5.2027  -42.2242 N   0  0  0  0  0  0  0  0  0  0  0  0
  -34.7903    5.9225  -41.0263 C   0  0  0  0  0  0  0  0  0  0  0  0
  -34.1225    7.2363  -41.4372 C   0  0  0  0  0  0  0  0  0  0  0  0
  -33.6634    7.9880  -40.1862 C   0  0  0  0  0  0  0  0  0  0  0  0
  -32.6625    7.1273  -39.4125 C   0  0  0  0  0  0  0  0  0  0  0  0
  -33.3305    5.8136  -39.0016 C   0  0  0  0  0  0  0  0  0  0  0  0
  -33.7895    5.0618  -40.2526 C   0  0  0  0  0  0  0  0  0  0  0  0
  -34.3121    4.8497  -43.1301 C   0  0  0  0  0  0  0  0  0  0  0  0
  -33.1484    5.1114  -42.9107 O   0  0  0  0  0  0  0  0  0  0  0  0
  -34.6620    4.1428  -44.4090 C   0  0  0  0  0  0  0  0  0  0  0  0
  -36.5025    2.9013  -45.8069 X   0  0  0  0  0  0  0  0  0  0  0  0
  1  2  1  0  0  0  0
  1 13  1  0  0  0  0
  1 14  1  0  0  0  0
  2  3  1  0  0  0  0
  3  4  1  0  0  0  0
  4  5  1  0  0  0  0
  4 11  1  0  0  0  0
  5  6  1  0  0  0  0
  5 10  1  0  0  0  0
  6  7  1  0  0  0  0
  7  8  1  0  0  0  0
  8  9  1  0  0  0  0
  9 10  1  0  0  0  0
 11 12  2  0  0  0  0
 11 13  1  0  0  0  0
M  END
> <Index>
13020

> <PropertyFieldDistance>
nan

$$$$
13473340
BBcorina  12272117083D 1   1.00000     0.00000 
CORINA 4.3.0 0026  30.10.2019
  9  9  0  0  0  0  0  0  0  0999 V2000
  -34.9040    3.4595  -41.3047 C   0  0  0  0  0  0  0  0  0  0  0  0
  -34.9961    4.4570  -42.4611 C   0  0  0  0  0  0  0  0  0  0  0  0
  -33.9805    5.5857  -42.2722 C   0  0  0  0  0  0  0  0  0  0  0  0
  -32.6656    5.0334  -42.1835 O   0  0  0  0  0  0  0  0  0  0  0  0
  -36.4271    5.0338  -42.5596 C   0  0  0  0  0  0  0  0  0  0  0  0
  -37.0854    4.1536  -43.6516 C   0  0  0  0  0  0  0  0  0  0  0  0
  -35.9828    3.9350  -44.6224 N   0  0  0  0  0  0  0  0  0  0  0  0
  -34.7625    3.7407  -43.8095 C   0  0  0  0  0  0  0  0  0  0  0  0
  -36.2907    2.5675  -45.6018 X   0  0  0  0  0  0  0  0  0  0  0  0
  1  2  1  0  0  0  0
  2  3  1  0  0  0  0
  2  5  1  0  0  0  0
  2  8  1  0  0  0  0
  3  4  1  0  0  0  0
  5  6  1  0  0  0  0
  6  7  1  0  0  0  0
  7  8  1  0  0  0  0
  7  9  1  0  0  0  0
M  END
> <Index>
13026

> <PropertyFieldDistance>
nan

$$$$
12056340
BBcorina  12272117083D 1   1.00000     0.00000 
CORINA 4.3.0 0026  30.10.2019
 12 12  0  0  0  0  0  0  0  0999 V2000
  -37.5768    5.3787  -41.4174 C   0  0  0  0  0  0  0  0  0  0  0  0
  -36.7015    5.3323  -42.6714 C   0  0  0  0  0  0  0  0  0  0  0  0
  -36.9622    4.0285  -43.4332 C   0  0  0  0  0  0  0  0  0  0  0  0
  -36.0119    3.9180  -44.5479 N   0  0  0  0  0  0  0  0  0  0  0  0
  -34.6279    3.8368  -44.0622 C   0  0  0  0  0  0  0  0  0  0  0  0
  -34.2713    5.1388  -43.3274 C   0  0  0  0  0  0  0  0  0  0  0  0
  -35.2828    5.3721  -42.2854 N   0  0  0  0  0  0  0  0  0  0  0  0
  -34.8360    5.6786  -40.7206 S   0  0  0  0  0  0  0  0  0  0  0  0
  -33.4558    5.3429  -40.6781 O   0  0  0  0  0  0  0  0  0  0  0  0
  -35.7871    4.9686  -39.9392 O   0  0  0  0  0  0  0  0  0  0  0  0
  -35.0620    7.4680  -40.5274 C   0  0  0  0  0  0  0  0  0  0  0  0
  -36.3905    2.5819  -45.5459 X   0  0  0  0  0  0  0  0  0  0  0  0
  1  2  1  0  0  0  0
  2  3  1  0  0  0  0
  2  7  1  0  0  0  0
  3  4  1  0  0  0  0
  4  5  1  0  0  0  0
  4 12  1  0  0  0  0
  5  6  1  0  0  0  0
  6  7  1  0  0  0  0
  7  8  1  0  0  0  0
  8  9  2  0  0  0  0
  8 10  2  0  0  0  0
  8 11  1  0  0  0  0
M  END
> <Index>
13027

> <PropertyFieldDistance>
nan

$$$$
10742318
BBcorina  12272117083D 1   1.00000     0.00000 
CORINA 4.3.0 0026  30.10.2019
 14 15  0  0  0  0  0  0  0  0999 V2000
  -38.6215   -0.3729  -44.4424 F   0  0  0  0  0  0  0  0  0  0  0  0
  -37.6163    0.3859  -44.9312 C   0  0  0  0  0  0  0  0  0  0  0  0
  -37.3630    1.6251  -44.3742 C   0  0  0  0  0  0  0  0  0  0  0  0
  -36.3259    2.3999  -44.8906 C   0  0  0  0  0  0  0  0  0  0  0  0
  -35.5770    1.8826  -45.9481 C   0  0  0  0  0  0  0  0  0  0  0  0
  -35.8900    0.6355  -46.4449 C   0  0  0  0  0  0  0  0  0  0  0  0
  -36.8831   -0.0681  -45.9331 N   0  0  0  0  0  0  0  0  0  0  0  0
  -36.0408    3.6550  -44.3610 N   0  0  0  0  0  0  0  0  0  0  0  0
  -36.9585    3.9834  -43.2610 C   0  0  0  0  0  0  0  0  0  0  0  0
  -36.6643    5.3993  -42.7603 C   0  0  0  0  0  0  0  0  0  0  0  0
  -35.2656    5.4787  -42.3163 N   0  0  0  0  0  0  0  0  0  0  0  0
  -34.3478    5.1501  -43.4165 C   0  0  0  0  0  0  0  0  0  0  0  0
  -34.6421    3.7340  -43.9173 C   0  0  0  0  0  0  0  0  0  0  0  0
  -34.9159    7.0209  -41.6654 X   0  0  0  0  0  0  0  0  0  0  0  0
  1  2  1  0  0  0  0
  2  3  2  0  0  0  0
  2  7  1  0  0  0  0
  3  4  1  0  0  0  0
  4  5  2  0  0  0  0
  4  8  1  0  0  0  0
  5  6  1  0  0  0  0
  6  7  2  0  0  0  0
  8  9  1  0  0  0  0
  8 13  1  0  0  0  0
  9 10  1  0  0  0  0
 10 11  1  0  0  0  0
 11 12  1  0  0  0  0
 11 14  1  0  0  0  0
 12 13  1  0  0  0  0
M  END
> <Index>
13028

> <PropertyFieldDistance>
nan

$$$$
11686174
BBcorina  12272117083D 1   1.00000     0.00000 
CORINA 4.3.0 0026  30.10.2019
 11 12  0  0  0  0  0  0  0  0999 V2000
  -33.6022    6.7442  -41.0334 F   0  0  0  0  0  0  0  0  0  0  0  0
  -34.8692    6.1521  -40.9955 C   0  0  0  0  0  0  0  0  0  0  0  0
  -35.8799    6.9253  -40.4143 F   0  0  0  0  0  0  0  0  0  0  0  0
  -34.9353    4.6362  -40.7953 C   0  0  0  0  0  0  0  0  0  0  0  0
  -35.2580    5.2429  -42.1596 C   0  0  0  0  0  0  0  0  0  0  0  0
  -36.7218    5.2456  -42.6121 C   0  0  0  0  0  0  0  0  0  0  0  0
  -36.9732    3.9962  -43.4635 C   0  0  0  0  0  0  0  0  0  0  0  0
  -36.0166    3.9628  -44.5767 N   0  0  0  0  0  0  0  0  0  0  0  0
  -34.6370    3.8106  -44.0985 C   0  0  0  0  0  0  0  0  0  0  0  0
  -34.2388    5.0483  -43.2870 C   0  0  0  0  0  0  0  0  0  0  0  0
  -36.4179    2.7308  -45.6926 X   0  0  0  0  0  0  0  0  0  0  0  0
  1  2  1  0  0  0  0
  2  3  1  0  0  0  0
  2  4  1  0  0  0  0
  2  5  1  0  0  0  0
  4  5  1  0  0  0  0
  5  6  1  0  0  0  0
  5 10  1  0  0  0  0
  6  7  1  0  0  0  0
  7  8  1  0  0  0  0
  8  9  1  0  0  0  0
  8 11  1  0  0  0  0
  9 10  1  0  0  0  0
M  END
> <Index>
13030

> <PropertyFieldDistance>
nan

$$$$
13654250
BBcorina  12272117083D 1   1.00000     0.00000 
CORINA 4.3.0 0026  30.10.2019
 11 11  0  0  0  0  0  0  0  0999 V2000
  -37.4117    4.1608  -40.6488 F   0  0  0  0  0  0  0  0  0  0  0  0
  -37.5657    5.3164  -41.4221 C   0  0  0  0  0  0  0  0  0  0  0  0
  -37.2516    6.4398  -40.6497 F   0  0  0  0  0  0  0  0  0  0  0  0
  -38.8901    5.4093  -41.8631 F   0  0  0  0  0  0  0  0  0  0  0  0
  -36.6293    5.2502  -42.6303 C   0  0  0  0  0  0  0  0  0  0  0  0
  -36.9723    4.0211  -43.4763 C   0  0  0  0  0  0  0  0  0  0  0  0
  -36.0215    3.9203  -44.5930 N   0  0  0  0  0  0  0  0  0  0  0  0
  -34.6419    3.8204  -44.0951 C   0  0  0  0  0  0  0  0  0  0  0  0
  -34.3222    5.0515  -43.2429 C   0  0  0  0  0  0  0  0  0  0  0  0
  -35.2751    5.1506  -42.1812 O   0  0  0  0  0  0  0  0  0  0  0  0
  -36.4046    2.5974  -45.6065 X   0  0  0  0  0  0  0  0  0  0  0  0
  1  2  1  0  0  0  0
  2  3  1  0  0  0  0
  2  4  1  0  0  0  0
  2  5  1  0  0  0  0
  5  6  1  0  0  0  0
  5 10  1  0  0  0  0
  6  7  1  0  0  0  0
  7  8  1  0  0  0  0
  7 11  1  0  0  0  0
  8  9  1  0  0  0  0
  9 10  1  0  0  0  0
M  END
> <Index>
13033

> <PropertyFieldDistance>
nan

$$$$
13654308
BBcorina  12272117083D 1   1.00000     0.00000 
CORINA 4.3.0 0026  30.10.2019
 11 11  0  0  0  0  0  0  0  0999 V2000
  -37.4117    4.1608  -40.6488 F   0  0  0  0  0  0  0  0  0  0  0  0
  -37.5657    5.3164  -41.4221 C   0  0  0  0  0  0  0  0  0  0  0  0
  -37.2516    6.4398  -40.6497 F   0  0  0  0  0  0  0  0  0  0  0  0
  -38.8901    5.4093  -41.8631 F   0  0  0  0  0  0  0  0  0  0  0  0
  -36.6293    5.2502  -42.6303 C   0  0  0  0  0  0  0  0  0  0  0  0
  -36.9723    4.0211  -43.4763 C   0  0  0  0  0  0  0  0  0  0  0  0
  -36.0215    3.9203  -44.5930 N   0  0  0  0  0  0  0  0  0  0  0  0
  -34.6419    3.8204  -44.0951 C   0  0  0  0  0  0  0  0  0  0  0  0
  -34.3222    5.0515  -43.2429 C   0  0  0  0  0  0  0  0  0  0  0  0
  -35.2751    5.1506  -42.1812 O   0  0  0  0  0  0  0  0  0  0  0  0
  -36.4046    2.5974  -45.6065 X   0  0  0  0  0  0  0  0  0  0  0  0
  1  2  1  0  0  0  0
  2  3  1  0  0  0  0
  2  4  1  0  0  0  0
  2  5  1  0  0  0  0
  5  6  1  0  0  0  0
  5 10  1  0  0  0  0
  6  7  1  0  0  0  0
  7  8  1  0  0  0  0
  7 11  1  0  0  0  0
  8  9  1  0  0  0  0
  9 10  1  0  0  0  0
M  END
> <Index>
13034

> <PropertyFieldDistance>
nan

$$$$
16513014
BBcorina  12272117083D 1   1.00000     0.00000 
CORINA 4.3.0 0026  30.10.2019
 12 12  0  0  0  0  0  0  0  0999 V2000
  -33.5255    7.7506  -39.9162 C   0  0  0  0  0  0  0  0  0  0  0  0
  -33.7604    6.5224  -40.6543 O   0  0  0  0  0  0  0  0  0  0  0  0
  -34.9320    6.4144  -41.3003 C   0  0  0  0  0  0  0  0  0  0  0  0
  -35.7347    7.3161  -41.2507 O   0  0  0  0  0  0  0  0  0  0  0  0
  -35.2464    5.1684  -42.0874 C   0  0  0  0  0  0  0  0  0  0  0  0
  -35.1164    4.0476  -41.2603 F   0  0  0  0  0  0  0  0  0  0  0  0
  -36.6796    5.2477  -42.6204 C   0  0  0  0  0  0  0  0  0  0  0  0
  -36.9723    4.0084  -43.4693 C   0  0  0  0  0  0  0  0  0  0  0  0
  -36.0194    3.9412  -44.5845 N   0  0  0  0  0  0  0  0  0  0  0  0
  -34.6397    3.8168  -44.0972 C   0  0  0  0  0  0  0  0  0  0  0  0
  -34.2763    5.0495  -43.2662 C   0  0  0  0  0  0  0  0  0  0  0  0
  -36.4111    2.6615  -45.6490 X   0  0  0  0  0  0  0  0  0  0  0  0
  1  2  1  0  0  0  0
  2  3  1  0  0  0  0
  3  4  2  0  0  0  0
  3  5  1  0  0  0  0
  5  6  1  0  0  0  0
  5  7  1  0  0  0  0
  5 11  1  0  0  0  0
  7  8  1  0  0  0  0
  8  9  1  0  0  0  0
  9 10  1  0  0  0  0
  9 12  1  0  0  0  0
 10 11  1  0  0  0  0
M  END
> <Index>
13035

> <PropertyFieldDistance>
nan

$$$$
16465960
BBcorina  12272117083D 1   1.00000     0.00000 
CORINA 4.3.0 0026  30.10.2019
 13 14  0  0  0  0  0  0  0  0999 V2000
  -36.0117    3.7534  -44.4454 N   0  0  0  0  0  0  0  0  0  0  0  0
  -36.9937    4.5933  -43.7471 C   0  0  0  0  0  0  0  0  0  0  0  0
  -36.6212    4.6828  -42.2634 C   0  0  0  0  0  0  0  0  0  0  0  0
  -35.2267    5.1383  -42.1584 N   0  0  0  0  0  0  0  0  0  0  0  0
  -34.2031    4.4331  -42.9448 C   0  0  0  0  0  0  0  0  0  0  0  0
  -34.6700    4.3498  -44.3971 C   0  0  0  0  0  0  0  0  0  0  0  0
  -34.8897    6.1990  -41.3511 C   0  0  0  0  0  0  0  0  0  0  0  0
  -35.8327    6.8621  -40.7666 N   0  0  0  0  0  0  0  0  0  0  0  0
  -35.5997    8.0187  -39.9011 C   0  0  0  0  0  0  0  0  0  0  0  0
  -34.1592    8.0151  -39.3848 C   0  0  0  0  0  0  0  0  0  0  0  0
  -33.2119    7.8056  -40.5759 C   0  0  0  0  0  0  0  0  0  0  0  0
  -33.5615    6.5174  -41.1943 N   0  0  0  0  0  0  0  0  0  0  0  0
  -36.4940    3.4598  -46.0596 X   0  0  0  0  0  0  0  0  0  0  0  0
  1  2  1  0  0  0  0
  1  6  1  0  0  0  0
  1 13  1  0  0  0  0
  2  3  1  0  0  0  0
  3  4  1  0  0  0  0
  4  5  1  0  0  0  0
  4  7  1  0  0  0  0
  5  6  1  0  0  0  0
  7  8  2  0  0  0  0
  7 12  1  0  0  0  0
  8  9  1  0  0  0  0
  9 10  1  0  0  0  0
 10 11  1  0  0  0  0
 11 12  1  0  0  0  0
M  END
> <Index>
13044

> <PropertyFieldDistance>
nan

$$$$
8227622
BBcorina  12272117083D 1   1.00000     0.00000 
CORINA 4.3.0 0026  30.10.2019
 13 13  0  0  0  0  0  0  0  0999 V2000
  -32.0688    7.7791  -39.4250 C   0  0  0  0  0  0  0  0  0  0  0  0
  -33.4903    7.7882  -39.9908 C   0  0  0  0  0  0  0  0  0  0  0  0
  -33.7231    6.5631  -40.7346 O   0  0  0  0  0  0  0  0  0  0  0  0
  -34.9315    6.4133  -41.2993 C   0  0  0  0  0  0  0  0  0  0  0  0
  -35.7672    7.2773  -41.1763 O   0  0  0  0  0  0  0  0  0  0  0  0
  -35.2460    5.1676  -42.0870 C   0  0  0  0  0  0  0  0  0  0  0  0
  -35.1044    3.9416  -41.1826 C   0  0  0  0  0  0  0  0  0  0  0  0
  -36.6792    5.2474  -42.6200 C   0  0  0  0  0  0  0  0  0  0  0  0
  -36.9728    4.0089  -43.4698 C   0  0  0  0  0  0  0  0  0  0  0  0
  -36.0190    3.9412  -44.5844 N   0  0  0  0  0  0  0  0  0  0  0  0
  -34.6395    3.8164  -44.0970 C   0  0  0  0  0  0  0  0  0  0  0  0
  -34.2768    5.0496  -43.2665 C   0  0  0  0  0  0  0  0  0  0  0  0
  -36.4108    2.6619  -45.6492 X   0  0  0  0  0  0  0  0  0  0  0  0
  1  2  1  0  0  0  0
  2  3  1  0  0  0  0
  3  4  1  0  0  0  0
  4  5  2  0  0  0  0
  4  6  1  0  0  0  0
  6  7  1  0  0  0  0
  6  8  1  0  0  0  0
  6 12  1  0  0  0  0
  8  9  1  0  0  0  0
  9 10  1  0  0  0  0
 10 11  1  0  0  0  0
 10 13  1  0  0  0  0
 11 12  1  0  0  0  0
M  END
> <Index>
13059

> <PropertyFieldDistance>
nan

$$$$
16897826
BBcorina  12272117083D 1   1.00000     0.00000 
CORINA 4.3.0 0026  30.10.2019
 13 14  0  0  0  0  0  0  0  0999 V2000
  -33.8197    6.2459  -38.1275 C   0  0  0  0  0  0  0  0  0  0  0  0
  -34.2618    6.8996  -39.4384 C   0  0  0  0  0  0  0  0  0  0  0  0
  -34.1968    8.4276  -39.3942 C   0  0  0  0  0  0  0  0  0  0  0  0
  -33.6044    6.2874  -40.6884 C   0  0  0  0  0  0  0  0  0  0  0  0
  -34.9395    6.3818  -41.3192 N   0  0  0  0  0  0  0  0  0  0  0  0
  -35.5900    6.3491  -39.9881 C   0  0  0  0  0  0  0  0  0  0  0  0
  -35.2461    5.1676  -42.0870 C   0  0  0  0  0  0  0  0  0  0  0  0
  -36.6793    5.2476  -42.6201 C   0  0  0  0  0  0  0  0  0  0  0  0
  -36.9723    4.0086  -43.4695 C   0  0  0  0  0  0  0  0  0  0  0  0
  -36.0191    3.9414  -44.5845 N   0  0  0  0  0  0  0  0  0  0  0  0
  -34.6397    3.8164  -44.0970 C   0  0  0  0  0  0  0  0  0  0  0  0
  -34.2770    5.0496  -43.2665 C   0  0  0  0  0  0  0  0  0  0  0  0
  -36.4111    2.6622  -45.6494 X   0  0  0  0  0  0  0  0  0  0  0  0
  1  2  1  0  0  0  0
  2  3  1  0  0  0  0
  2  4  1  0  0  0  0
  2  6  1  0  0  0  0
  4  5  1  0  0  0  0
  5  6  1  0  0  0  0
  5  7  1  0  0  0  0
  7  8  1  0  0  0  0
  7 12  1  0  0  0  0
  8  9  1  0  0  0  0
  9 10  1  0  0  0  0
 10 11  1  0  0  0  0
 10 13  1  0  0  0  0
 11 12  1  0  0  0  0
M  END
> <Index>
13065

> <PropertyFieldDistance>
nan

$$$$
16948684
BBcorina  12272117083D 1   1.00000     0.00000 
CORINA 4.3.0 0026  30.10.2019
 13 14  0  0  0  0  0  0  0  0999 V2000
  -30.3756    6.8415  -43.5232 C   0  0  0  0  0  0  0  0  0  0  0  0
  -31.0617    5.7754  -42.6665 C   0  0  0  0  0  0  0  0  0  0  0  0
  -30.1442    5.1758  -41.5991 C   0  0  0  0  0  0  0  0  0  0  0  0
  -32.4478    6.1826  -42.1473 C   0  0  0  0  0  0  0  0  0  0  0  0
  -33.0145    5.6511  -43.4009 N   0  0  0  0  0  0  0  0  0  0  0  0
  -31.8580    4.7388  -43.4715 C   0  0  0  0  0  0  0  0  0  0  0  0
  -34.2559    4.9088  -43.1443 C   0  0  0  0  0  0  0  0  0  0  0  0
  -35.3534    5.8832  -42.7080 C   0  0  0  0  0  0  0  0  0  0  0  0
  -36.6587    5.1099  -42.5008 C   0  0  0  0  0  0  0  0  0  0  0  0
  -37.0290    4.3869  -43.7978 C   0  0  0  0  0  0  0  0  0  0  0  0
  -35.9480    3.4665  -44.1722 N   0  0  0  0  0  0  0  0  0  0  0  0
  -34.6958    4.1916  -44.4227 C   0  0  0  0  0  0  0  0  0  0  0  0
  -36.3902    2.5212  -45.5267 X   0  0  0  0  0  0  0  0  0  0  0  0
  1  2  1  0  0  0  0
  2  3  1  0  0  0  0
  2  4  1  0  0  0  0
  2  6  1  0  0  0  0
  4  5  1  0  0  0  0
  5  6  1  0  0  0  0
  5  7  1  0  0  0  0
  7  8  1  0  0  0  0
  7 12  1  0  0  0  0
  8  9  1  0  0  0  0
  9 10  1  0  0  0  0
 10 11  1  0  0  0  0
 11 12  1  0  0  0  0
 11 13  1  0  0  0  0
M  END
> <Index>
13069

> <PropertyFieldDistance>
nan

$$$$
14780908
BBcorina  12272117083D 1   1.00000     0.00000 
CORINA 4.3.0 0026  30.10.2019
  9  9  0  0  0  0  0  0  0  0999 V2000
  -34.4226    4.3714  -39.0097 C   0  0  0  0  0  0  0  0  0  0  0  0
  -34.5838    5.2878  -40.2245 C   0  0  0  0  0  0  0  0  0  0  0  0
  -34.1774    4.5453  -41.4713 C   0  0  0  0  0  0  0  0  0  0  0  0
  -35.0094    4.4524  -42.4788 C   0  0  0  0  0  0  0  0  0  0  0  0
  -36.4154    5.0282  -42.5639 C   0  0  0  0  0  0  0  0  0  0  0  0
  -37.0881    4.1569  -43.6540 C   0  0  0  0  0  0  0  0  0  0  0  0
  -35.9839    3.9293  -44.6254 N   0  0  0  0  0  0  0  0  0  0  0  0
  -34.7702    3.7488  -43.7997 C   0  0  0  0  0  0  0  0  0  0  0  0
  -36.2832    2.5462  -45.5855 X   0  0  0  0  0  0  0  0  0  0  0  0
  1  2  1  0  0  0  0
  2  3  1  0  0  0  0
  3  4  2  0  0  0  0
  4  5  1  0  0  0  0
  4  8  1  0  0  0  0
  5  6  1  0  0  0  0
  6  7  1  0  0  0  0
  7  8  1  0  0  0  0
  7  9  1  0  0  0  0
M  END
> <Index>
13074

> <PropertyFieldDistance>
nan

$$$$
11951060
BBcorina  12272117083D 1   1.00000     0.00000 
CORINA 4.3.0 0026  30.10.2019
 11 12  0  0  0  0  0  0  0  0999 V2000
  -37.4019    5.6500  -44.6719 C   0  0  0  0  0  0  0  0  0  0  0  0
  -37.0411    4.4353  -43.8146 C   0  0  0  0  0  0  0  0  0  0  0  0
  -36.4473    4.8921  -42.4642 C   0  0  0  0  0  0  0  0  0  0  0  0
  -34.9320    4.8811  -42.7692 C   0  0  0  0  0  0  0  0  0  0  0  0
  -34.4813    6.2123  -43.1965 N   0  0  0  0  0  0  0  0  0  0  0  0
  -34.7873    3.8842  -43.9004 C   0  0  0  0  0  0  0  0  0  0  0  0
  -33.8949    3.1544  -44.5260 N   0  0  0  0  0  0  0  0  0  0  0  0
  -34.4825    2.4533  -45.4937 C   0  0  0  0  0  0  0  0  0  0  0  0
  -35.7615    2.7195  -45.4938 N   0  0  0  0  0  0  0  0  0  0  0  0
  -35.9820    3.6515  -44.4638 N   0  0  0  0  0  0  0  0  0  0  0  0
  -33.8593    6.1669  -44.7887 X   0  0  0  0  0  0  0  0  0  0  0  0
  1  2  1  0  0  0  0
  2  3  1  0  0  0  0
  2 10  1  0  0  0  0
  3  4  1  0  0  0  0
  4  5  1  0  0  0  0
  4  6  1  0  0  0  0
  5 11  1  0  0  0  0
  6  7  2  0  0  0  0
  6 10  1  0  0  0  0
  7  8  1  0  0  0  0
  8  9  2  0  0  0  0
  9 10  1  0  0  0  0
M  END
> <Index>
13105

> <PropertyFieldDistance>
nan

$$$$
13656246
BBcorina  12272117083D 1   1.00000     0.00000 
CORINA 4.3.0 0026  30.10.2019
  7  7  0  0  0  0  0  0  0  0999 V2000
  -35.9844    3.9309  -44.6242 N   0  0  0  0  0  0  0  0  0  0  0  0
  -37.0879    4.1559  -43.6543 C   0  0  0  0  0  0  0  0  0  0  0  0
  -36.4153    5.0279  -42.5647 C   0  0  0  0  0  0  0  0  0  0  0  0
  -35.0092    4.4526  -42.4793 C   0  0  0  0  0  0  0  0  0  0  0  0
  -34.1771    4.5462  -41.4719 C   0  0  0  0  0  0  0  0  0  0  0  0
  -34.7700    3.7483  -43.7999 C   0  0  0  0  0  0  0  0  0  0  0  0
  -36.2858    2.5495  -45.5858 X   0  0  0  0  0  0  0  0  0  0  0  0
  1  2  1  0  0  0  0
  1  6  1  0  0  0  0
  1  7  1  0  0  0  0
  2  3  1  0  0  0  0
  3  4  1  0  0  0  0
  4  5  2  0  0  0  0
  4  6  1  0  0  0  0
M  END
> <Index>
13110

> <PropertyFieldDistance>
nan

$$$$
13224638
BBcorina  12272117083D 1   1.00000     0.00000 
CORINA 4.3.0 0026  30.10.2019
 11 12  0  0  0  0  0  0  0  0999 V2000
  -34.1098    2.4328  -46.1989 C   0  0  0  0  0  0  0  0  0  0  0  0
  -35.1725    2.9944  -45.3615 N   0  0  0  0  0  0  0  0  0  0  0  0
  -36.4289    2.7013  -45.4299 N   0  0  0  0  0  0  0  0  0  0  0  0
  -37.0934    3.3718  -44.5493 N   0  0  0  0  0  0  0  0  0  0  0  0
  -36.2469    4.1368  -43.8716 C   0  0  0  0  0  0  0  0  0  0  0  0
  -36.5056    5.0999  -42.7435 C   0  0  0  0  0  0  0  0  0  0  0  0
  -35.2206    5.3947  -42.0855 N   0  0  0  0  0  0  0  0  0  0  0  0
  -34.1971    5.8019  -43.0581 C   0  0  0  0  0  0  0  0  0  0  0  0
  -33.7658    4.5878  -43.8941 C   0  0  0  0  0  0  0  0  0  0  0  0
  -35.0126    3.9029  -44.3880 C   0  0  0  0  0  0  0  0  0  0  0  0
  -34.6874    4.0615  -41.1568 X   0  0  0  0  0  0  0  0  0  0  0  0
  1  2  1  0  0  0  0
  2  3  1  0  0  0  0
  2 10  1  0  0  0  0
  3  4  2  0  0  0  0
  4  5  1  0  0  0  0
  5  6  1  0  0  0  0
  5 10  2  0  0  0  0
  6  7  1  0  0  0  0
  7  8  1  0  0  0  0
  7 11  1  0  0  0  0
  8  9  1  0  0  0  0
  9 10  1  0  0  0  0
M  END
> <Index>
13111

> <PropertyFieldDistance>
nan

$$$$
8845968
BBcorina  12272117083D 1   1.00000     0.00000 
CORINA 4.3.0 0026  30.10.2019
 10 10  0  0  0  0  0  0  0  0999 V2000
  -37.3441    6.4915  -40.6374 O   0  0  0  0  0  0  0  0  0  0  0  0
  -37.4074    5.2165  -41.2796 C   0  0  0  0  0  0  0  0  0  0  0  0
  -36.7057    5.2938  -42.6371 C   0  0  0  0  0  0  0  0  0  0  0  0
  -36.8947    3.9696  -43.3796 C   0  0  0  0  0  0  0  0  0  0  0  0
  -36.0308    3.9710  -44.5708 N   0  0  0  0  0  0  0  0  0  0  0  0
  -34.6185    3.8966  -44.1732 C   0  0  0  0  0  0  0  0  0  0  0  0
  -34.3243    4.9408  -43.1338 C   0  0  0  0  0  0  0  0  0  0  0  0
  -33.1682    5.2394  -42.9212 O   0  0  0  0  0  0  0  0  0  0  0  0
  -35.2836    5.5546  -42.4330 N   0  0  0  0  0  0  0  0  0  0  0  0
  -36.3227    5.3490  -45.5403 X   0  0  0  0  0  0  0  0  0  0  0  0
  1  2  1  0  0  0  0
  2  3  1  0  0  0  0
  3  4  1  0  0  0  0
  3  9  1  0  0  0  0
  4  5  1  0  0  0  0
  5  6  1  0  0  0  0
  5 10  1  0  0  0  0
  6  7  1  0  0  0  0
  7  8  2  0  0  0  0
  7  9  1  0  0  0  0
M  END
> <Index>
13114

> <PropertyFieldDistance>
nan

$$$$
12131664
BBcorina  12272117083D 1   1.00000     0.00000 
CORINA 4.3.0 0026  30.10.2019
  8  9  0  0  0  0  0  0  0  0999 V2000
  -38.4759    4.4385  -44.1508 C   0  0  0  0  0  0  0  0  0  0  0  0
  -36.9760    4.5779  -43.8824 C   0  0  0  0  0  0  0  0  0  0  0  0
  -36.4669    4.8102  -42.4383 C   0  0  0  0  0  0  0  0  0  0  0  0
  -35.1988    5.2901  -43.1923 C   0  0  0  0  0  0  0  0  0  0  0  0
  -36.2560    5.9640  -44.1205 C   0  0  0  0  0  0  0  0  0  0  0  0
  -36.0729    3.4960  -44.4027 N   0  0  0  0  0  0  0  0  0  0  0  0
  -34.7419    3.9790  -43.9196 C   0  0  0  0  0  0  0  0  0  0  0  0
  -36.1174    3.4291  -46.1108 X   0  0  0  0  0  0  0  0  0  0  0  0
  1  2  1  0  0  0  0
  2  3  1  0  0  0  0
  2  5  1  0  0  0  0
  2  6  1  0  0  0  0
  3  4  1  0  0  0  0
  4  5  1  0  0  0  0
  4  7  1  0  0  0  0
  6  7  1  0  0  0  0
  6  8  1  0  0  0  0
M  END
> <Index>
13115

> <PropertyFieldDistance>
nan

$$$$
8859548
BBcorina  12272117083D 1   1.00000     0.00000 
CORINA 4.3.0 0026  30.10.2019
 11 11  0  0  0  0  0  0  0  0999 V2000
  -32.3225    2.0307  -39.1939 C   0  0  0  0  0  0  0  0  0  0  0  0
  -33.6243    2.3383  -39.7912 N   0  0  0  0  0  0  0  0  0  0  0  0
  -33.7078    3.2173  -40.8095 C   0  0  0  0  0  0  0  0  0  0  0  0
  -32.7026    3.7549  -41.2324 O   0  0  0  0  0  0  0  0  0  0  0  0
  -34.9055    3.5003  -41.3589 N   0  0  0  0  0  0  0  0  0  0  0  0
  -34.9963    4.4557  -42.4657 C   0  0  0  0  0  0  0  0  0  0  0  0
  -36.4271    5.0338  -42.5595 C   0  0  0  0  0  0  0  0  0  0  0  0
  -37.0854    4.1536  -43.6516 C   0  0  0  0  0  0  0  0  0  0  0  0
  -35.9828    3.9350  -44.6224 N   0  0  0  0  0  0  0  0  0  0  0  0
  -34.7625    3.7407  -43.8095 C   0  0  0  0  0  0  0  0  0  0  0  0
  -36.2908    2.5675  -45.6018 X   0  0  0  0  0  0  0  0  0  0  0  0
  1  2  1  0  0  0  0
  2  3  1  0  0  0  0
  3  4  2  0  0  0  0
  3  5  1  0  0  0  0
  5  6  1  0  0  0  0
  6  7  1  0  0  0  0
  6 10  1  0  0  0  0
  7  8  1  0  0  0  0
  8  9  1  0  0  0  0
  9 10  1  0  0  0  0
  9 11  1  0  0  0  0
M  END
> <Index>
13117

> <PropertyFieldDistance>
nan

$$$$
6742914
BBcorina  12272117083D 1   1.00000     0.00000 
CORINA 4.3.0 0026  30.10.2019
 11 11  0  0  0  0  0  0  0  0999 V2000
  -32.4177    5.1707  -40.8500 C   0  0  0  0  0  0  0  0  0  0  0  0
  -33.6803    5.9833  -41.1441 C   0  0  0  0  0  0  0  0  0  0  0  0
  -34.6084    5.1732  -42.0515 C   0  0  0  0  0  0  0  0  0  0  0  0
  -35.0164    3.8931  -41.3199 C   0  0  0  0  0  0  0  0  0  0  0  0
  -35.8435    5.9862  -42.3304 C   0  0  0  0  0  0  0  0  0  0  0  0
  -37.0491    5.0302  -42.4709 C   0  0  0  0  0  0  0  0  0  0  0  0
  -37.0583    4.3651  -43.7690 C   0  0  0  0  0  0  0  0  0  0  0  0
  -35.8614    3.5280  -43.9955 N   0  0  0  0  0  0  0  0  0  0  0  0
  -34.7797    4.3552  -44.4720 C   0  0  0  0  0  0  0  0  0  0  0  0
  -33.8387    4.7852  -43.3304 C   0  0  0  0  0  0  0  0  0  0  0  0
  -36.1972    2.2638  -45.0969 X   0  0  0  0  0  0  0  0  0  0  0  0
  1  2  1  0  0  0  0
  2  3  1  0  0  0  0
  3  4  1  0  0  0  0
  3  5  1  0  0  0  0
  3 10  1  0  0  0  0
  5  6  1  0  0  0  0
  6  7  1  0  0  0  0
  7  8  1  0  0  0  0
  8  9  1  0  0  0  0
  8 11  1  0  0  0  0
  9 10  1  0  0  0  0
M  END
> <Index>
13118

> <PropertyFieldDistance>
nan

$$$$
7875548
BBcorina  12272117083D 1   1.00000     0.00000 
CORINA 4.3.0 0026  30.10.2019
 11 11  0  0  0  0  0  0  0  0999 V2000
  -33.1508    7.5528  -40.1319 C   0  0  0  0  0  0  0  0  0  0  0  0
  -33.5547    6.4101  -40.8890 O   0  0  0  0  0  0  0  0  0  0  0  0
  -34.9269    6.4323  -41.2873 C   0  0  0  0  0  0  0  0  0  0  0  0
  -35.2462    5.1676  -42.0870 C   0  0  0  0  0  0  0  0  0  0  0  0
  -35.1138    4.0216  -41.2436 O   0  0  0  0  0  0  0  0  0  0  0  0
  -36.6793    5.2476  -42.6202 C   0  0  0  0  0  0  0  0  0  0  0  0
  -36.9723    4.0086  -43.4694 C   0  0  0  0  0  0  0  0  0  0  0  0
  -36.0191    3.9414  -44.5845 N   0  0  0  0  0  0  0  0  0  0  0  0
  -34.6396    3.8164  -44.0970 C   0  0  0  0  0  0  0  0  0  0  0  0
  -34.2769    5.0496  -43.2665 C   0  0  0  0  0  0  0  0  0  0  0  0
  -36.4111    2.6621  -45.6494 X   0  0  0  0  0  0  0  0  0  0  0  0
  1  2  1  0  0  0  0
  2  3  1  0  0  0  0
  3  4  1  0  0  0  0
  4  5  1  0  0  0  0
  4  6  1  0  0  0  0
  4 10  1  0  0  0  0
  6  7  1  0  0  0  0
  7  8  1  0  0  0  0
  8  9  1  0  0  0  0
  8 11  1  0  0  0  0
  9 10  1  0  0  0  0
M  END
> <Index>
13119

> <PropertyFieldDistance>
nan

$$$$
11355186
BBcorina  12272117083D 1   1.00000     0.00000 
CORINA 4.3.0 0026  30.10.2019
 11 11  0  0  0  0  0  0  0  0999 V2000
  -31.6127    6.2078  -40.1171 O   0  0  0  0  0  0  0  0  0  0  0  0
  -32.4885    5.3963  -40.9022 C   0  0  0  0  0  0  0  0  0  0  0  0
  -33.7103    6.2182  -41.3172 C   0  0  0  0  0  0  0  0  0  0  0  0
  -34.6481    5.3494  -42.1577 C   0  0  0  0  0  0  0  0  0  0  0  0
  -35.8995    6.1212  -42.4773 C   0  0  0  0  0  0  0  0  0  0  0  0
  -37.1497    5.2254  -42.5909 C   0  0  0  0  0  0  0  0  0  0  0  0
  -36.8627    3.9131  -43.3455 C   0  0  0  0  0  0  0  0  0  0  0  0
  -36.0144    4.1261  -44.4928 N   0  0  0  0  0  0  0  0  0  0  0  0
  -34.6116    3.8364  -44.1284 C   0  0  0  0  0  0  0  0  0  0  0  0
  -33.9488    4.9626  -43.4801 C   0  0  0  0  0  0  0  0  0  0  0  0
  -36.5161    3.1624  -45.8133 X   0  0  0  0  0  0  0  0  0  0  0  0
  1  2  1  0  0  0  0
  2  3  1  0  0  0  0
  3  4  1  0  0  0  0
  4  5  1  0  0  0  0
  4 10  1  0  0  0  0
  5  6  1  0  0  0  0
  6  7  1  0  0  0  0
  7  8  1  0  0  0  0
  8  9  1  0  0  0  0
  8 11  1  0  0  0  0
  9 10  1  0  0  0  0
M  END
> <Index>
13120

> <PropertyFieldDistance>
nan

$$$$
7877394
BBcorina  12272117083D 1   1.00000     0.00000 
CORINA 4.3.0 0026  30.10.2019
 10 10  0  0  0  0  0  0  0  0999 V2000
  -38.4007    7.8056  -40.4190 C   0  0  0  0  0  0  0  0  0  0  0  0
  -37.3276    6.7820  -40.7953 C   0  0  0  0  0  0  0  0  0  0  0  0
  -37.6833    6.1405  -42.1380 C   0  0  0  0  0  0  0  0  0  0  0  0
  -36.6101    5.1169  -42.5144 C   0  0  0  0  0  0  0  0  0  0  0  0
  -37.0250    4.3873  -43.7948 C   0  0  0  0  0  0  0  0  0  0  0  0
  -35.9555    3.4606  -44.1930 N   0  0  0  0  0  0  0  0  0  0  0  0
  -34.6941    4.1836  -44.4110 C   0  0  0  0  0  0  0  0  0  0  0  0
  -34.3026    4.9152  -43.1244 C   0  0  0  0  0  0  0  0  0  0  0  0
  -35.3668    5.7881  -42.7357 O   0  0  0  0  0  0  0  0  0  0  0  0
  -36.4010    2.5722  -45.5845 X   0  0  0  0  0  0  0  0  0  0  0  0
  1  2  1  0  0  0  0
  2  3  1  0  0  0  0
  3  4  1  0  0  0  0
  4  5  1  0  0  0  0
  4  9  1  0  0  0  0
  5  6  1  0  0  0  0
  6  7  1  0  0  0  0
  6 10  1  0  0  0  0
  7  8  1  0  0  0  0
  8  9  1  0  0  0  0
M  END
> <Index>
13121

> <PropertyFieldDistance>
nan

$$$$
10124238
BBcorina  12272117083D 1   1.00000     0.00000 
CORINA 4.3.0 0026  30.10.2019
 10 10  0  0  0  0  0  0  0  0999 V2000
  -36.2958    2.5575  -46.0655 C   0  0  0  0  0  0  0  0  0  0  0  0
  -36.1972    2.0181  -44.6372 C   0  0  0  0  0  0  0  0  0  0  0  0
  -35.8823    3.1200  -43.7183 N   0  0  0  0  0  0  0  0  0  0  0  0
  -36.9901    4.0836  -43.6524 C   0  0  0  0  0  0  0  0  0  0  0  0
  -36.6569    5.1706  -42.6277 C   0  0  0  0  0  0  0  0  0  0  0  0
  -35.4053    5.8370  -43.0137 N   0  0  0  0  0  0  0  0  0  0  0  0
  -34.2975    4.8734  -43.0796 C   0  0  0  0  0  0  0  0  0  0  0  0
  -33.0166    5.5964  -43.5006 C   0  0  0  0  0  0  0  0  0  0  0  0
  -34.6307    3.7864  -44.1043 C   0  0  0  0  0  0  0  0  0  0  0  0
  -35.0388    7.1198  -41.9441 X   0  0  0  0  0  0  0  0  0  0  0  0
  1  2  1  0  0  0  0
  2  3  1  0  0  0  0
  3  4  1  0  0  0  0
  3  9  1  0  0  0  0
  4  5  1  0  0  0  0
  5  6  1  0  0  0  0
  6  7  1  0  0  0  0
  6 10  1  0  0  0  0
  7  8  1  0  0  0  0
  7  9  1  0  0  0  0
M  END
> <Index>
13122

> <PropertyFieldDistance>
nan

$$$$
14600432
BBcorina  12272117083D 1   1.00000     0.00000 
CORINA 4.3.0 0026  30.10.2019
  9  9  0  0  0  0  0  0  0  0999 V2000
  -36.0642    3.5302  -44.4138 N   0  0  0  0  0  0  0  0  0  0  0  0
  -36.9954    4.5500  -43.8664 C   0  0  0  0  0  0  0  0  0  0  0  0
  -36.4720    4.8297  -42.4412 C   0  0  0  0  0  0  0  0  0  0  0  0
  -34.9803    4.4380  -42.4781 C   0  0  0  0  0  0  0  0  0  0  0  0
  -34.1042    5.6523  -42.1633 C   0  0  0  0  0  0  0  0  0  0  0  0
  -32.6918    5.2399  -42.1190 C   0  0  0  0  0  0  0  0  0  0  0  0
  -31.6019    4.9218  -42.0848 N   0  0  0  0  0  0  0  0  0  0  0  0
  -34.7261    3.9531  -43.9215 C   0  0  0  0  0  0  0  0  0  0  0  0
  -36.1112    3.5122  -46.1231 X   0  0  0  0  0  0  0  0  0  0  0  0
  1  2  1  0  0  0  0
  1  8  1  0  0  0  0
  1  9  1  0  0  0  0
  2  3  1  0  0  0  0
  3  4  1  0  0  0  0
  4  5  1  0  0  0  0
  4  8  1  0  0  0  0
  5  6  1  0  0  0  0
  6  7  3  0  0  0  0
M  END
> <Index>
13123

> <PropertyFieldDistance>
nan

$$$$
6339624
BBcorina  12272117083D 1   1.00000     0.00000 
CORINA 4.3.0 0026  30.10.2019
 11 11  0  0  0  0  0  0  0  0999 V2000
  -30.5739    5.4811  -44.1148 C   0  0  0  0  0  0  0  0  0  0  0  0
  -31.8668    4.7078  -43.8474 C   0  0  0  0  0  0  0  0  0  0  0  0
  -32.9630    5.6821  -43.4116 C   0  0  0  0  0  0  0  0  0  0  0  0
  -34.2559    4.9088  -43.1443 C   0  0  0  0  0  0  0  0  0  0  0  0
  -34.0163    3.8803  -42.0372 C   0  0  0  0  0  0  0  0  0  0  0  0
  -35.3535    5.8832  -42.7080 C   0  0  0  0  0  0  0  0  0  0  0  0
  -36.6586    5.1099  -42.5008 C   0  0  0  0  0  0  0  0  0  0  0  0
  -37.0290    4.3869  -43.7977 C   0  0  0  0  0  0  0  0  0  0  0  0
  -35.9479    3.4664  -44.1723 N   0  0  0  0  0  0  0  0  0  0  0  0
  -34.6959    4.1917  -44.4226 C   0  0  0  0  0  0  0  0  0  0  0  0
  -36.3899    2.5211  -45.5269 X   0  0  0  0  0  0  0  0  0  0  0  0
  1  2  1  0  0  0  0
  2  3  1  0  0  0  0
  3  4  1  0  0  0  0
  4  5  1  0  0  0  0
  4  6  1  0  0  0  0
  4 10  1  0  0  0  0
  6  7  1  0  0  0  0
  7  8  1  0  0  0  0
  8  9  1  0  0  0  0
  9 10  1  0  0  0  0
  9 11  1  0  0  0  0
M  END
> <Index>
13124

> <PropertyFieldDistance>
nan

$$$$
9823116
BBcorina  12272117083D 1   1.00000     0.00000 
CORINA 4.3.0 0026  30.10.2019
 10 10  0  0  0  0  0  0  0  0999 V2000
  -37.4754    6.1124  -41.9373 C   0  0  0  0  0  0  0  0  0  0  0  0
  -36.6505    4.9002  -42.3741 C   0  0  0  0  0  0  0  0  0  0  0  0
  -36.9648    4.5723  -43.8350 C   0  0  0  0  0  0  0  0  0  0  0  0
  -36.0067    3.5603  -44.3089 N   0  0  0  0  0  0  0  0  0  0  0  0
  -34.6621    4.1436  -44.4094 C   0  0  0  0  0  0  0  0  0  0  0  0
  -34.3121    4.8500  -43.1304 C   0  0  0  0  0  0  0  0  0  0  0  0
  -33.1485    5.1127  -42.9113 O   0  0  0  0  0  0  0  0  0  0  0  0
  -35.2298    5.2017  -42.2237 N   0  0  0  0  0  0  0  0  0  0  0  0
  -34.7902    5.9217  -41.0259 C   0  0  0  0  0  0  0  0  0  0  0  0
  -36.0056    2.1906  -43.2852 X   0  0  0  0  0  0  0  0  0  0  0  0
  1  2  1  0  0  0  0
  2  3  1  0  0  0  0
  2  8  1  0  0  0  0
  3  4  1  0  0  0  0
  4  5  1  0  0  0  0
  4 10  1  0  0  0  0
  5  6  1  0  0  0  0
  6  7  2  0  0  0  0
  6  8  1  0  0  0  0
  8  9  1  0  0  0  0
M  END
> <Index>
13129

> <PropertyFieldDistance>
nan

$$$$
10564966
BBcorina  12272117083D 1   1.00000     0.00000 
CORINA 4.3.0 0026  30.10.2019
 10 10  0  0  0  0  0  0  0  0999 V2000
  -32.2678    6.5292  -41.9255 O   0  0  0  0  0  0  0  0  0  0  0  0
  -33.6555    6.8612  -41.8488 C   0  0  0  0  0  0  0  0  0  0  0  0
  -34.4943    5.6331  -42.2080 C   0  0  0  0  0  0  0  0  0  0  0  0
  -35.9048    5.9490  -42.0111 C   0  0  0  0  0  0  0  0  0  0  0  0
  -36.8194    4.7427  -42.3102 C   0  0  0  0  0  0  0  0  0  0  0  0
  -36.9707    4.6167  -43.8017 C   0  0  0  0  0  0  0  0  0  0  0  0
  -35.9918    3.6824  -44.4012 N   0  0  0  0  0  0  0  0  0  0  0  0
  -34.6188    3.7972  -43.8607 C   0  0  0  0  0  0  0  0  0  0  0  0
  -34.1865    5.2246  -43.6639 C   0  0  0  0  0  0  0  0  0  0  0  0
  -36.5518    2.0690  -44.3142 X   0  0  0  0  0  0  0  0  0  0  0  0
  1  2  1  0  0  0  0
  2  3  1  0  0  0  0
  3  4  1  0  0  0  0
  3  9  1  0  0  0  0
  4  5  1  0  0  0  0
  5  6  1  0  0  0  0
  6  7  1  0  0  0  0
  7  8  1  0  0  0  0
  7 10  1  0  0  0  0
  8  9  1  0  0  0  0
M  END
> <Index>
13130

> <PropertyFieldDistance>
nan

$$$$
14057274
BBcorina  12272117083D 1   1.00000     0.00000 
CORINA 4.3.0 0026  30.10.2019
  7  8  0  0  0  0  0  0  0  0999 V2000
  -36.0387    3.6928  -44.5798 N   0  0  0  0  0  0  0  0  0  0  0  0
  -37.1162    4.3607  -43.7855 C   0  0  0  0  0  0  0  0  0  0  0  0
  -36.2605    4.8666  -42.5737 C   0  0  0  0  0  0  0  0  0  0  0  0
  -35.3656    3.6339  -42.2794 C   0  0  0  0  0  0  0  0  0  0  0  0
  -34.8423    3.9430  -43.7040 C   0  0  0  0  0  0  0  0  0  0  0  0
  -34.9235    5.4039  -43.1713 C   0  0  0  0  0  0  0  0  0  0  0  0
  -35.8493    4.4405  -46.1060 X   0  0  0  0  0  0  0  0  0  0  0  0
  1  2  1  0  0  0  0
  1  5  1  0  0  0  0
  1  7  1  0  0  0  0
  2  3  1  0  0  0  0
  3  4  1  0  0  0  0
  3  6  1  0  0  0  0
  4  5  1  0  0  0  0
  5  6  1  0  0  0  0
M  END
> <Index>
13132

> <PropertyFieldDistance>
nan

$$$$
8366214
BBcorina  12272117083D 1   1.00000     0.00000 
CORINA 4.3.0 0026  30.10.2019
 10 10  0  0  0  0  0  0  0  0999 V2000
  -37.2686    6.8685  -40.8589 C   0  0  0  0  0  0  0  0  0  0  0  0
  -37.6840    6.1399  -42.1385 C   0  0  0  0  0  0  0  0  0  0  0  0
  -37.8429    7.1532  -43.2737 C   0  0  0  0  0  0  0  0  0  0  0  0
  -36.6101    5.1169  -42.5144 C   0  0  0  0  0  0  0  0  0  0  0  0
  -37.0250    4.3873  -43.7948 C   0  0  0  0  0  0  0  0  0  0  0  0
  -35.9555    3.4605  -44.1931 N   0  0  0  0  0  0  0  0  0  0  0  0
  -34.6941    4.1836  -44.4110 C   0  0  0  0  0  0  0  0  0  0  0  0
  -34.3026    4.9152  -43.1244 C   0  0  0  0  0  0  0  0  0  0  0  0
  -35.3668    5.7881  -42.7357 O   0  0  0  0  0  0  0  0  0  0  0  0
  -36.4010    2.5722  -45.5846 X   0  0  0  0  0  0  0  0  0  0  0  0
  1  2  1  0  0  0  0
  2  3  1  0  0  0  0
  2  4  1  0  0  0  0
  4  5  1  0  0  0  0
  4  9  1  0  0  0  0
  5  6  1  0  0  0  0
  6  7  1  0  0  0  0
  6 10  1  0  0  0  0
  7  8  1  0  0  0  0
  8  9  1  0  0  0  0
M  END
> <Index>
13134

> <PropertyFieldDistance>
nan

$$$$
12312016
BBcorina  12272117083D 1   1.00000     0.00000 
CORINA 4.3.0 0026  30.10.2019
 10 11  0  0  0  0  0  0  0  0999 V2000
  -35.9533    3.4778  -44.1548 N   0  0  0  0  0  0  0  0  0  0  0  0
  -36.9631    4.4940  -43.8329 C   0  0  0  0  0  0  0  0  0  0  0  0
  -36.7340    5.0377  -42.4145 C   0  0  0  0  0  0  0  0  0  0  0  0
  -35.2808    5.4210  -42.3044 C   0  0  0  0  0  0  0  0  0  0  0  0
  -34.6576    6.1560  -41.4499 N   0  0  0  0  0  0  0  0  0  0  0  0
  -33.4730    6.2313  -41.7143 O   0  0  0  0  0  0  0  0  0  0  0  0
  -33.1640    5.5239  -42.8176 C   0  0  0  0  0  0  0  0  0  0  0  0
  -34.3083    4.9748  -43.2370 C   0  0  0  0  0  0  0  0  0  0  0  0
  -34.6286    4.0793  -44.3986 C   0  0  0  0  0  0  0  0  0  0  0  0
  -36.4470    2.5230  -45.4847 X   0  0  0  0  0  0  0  0  0  0  0  0
  1  2  1  0  0  0  0
  1  9  1  0  0  0  0
  1 10  1  0  0  0  0
  2  3  1  0  0  0  0
  3  4  1  0  0  0  0
  4  5  2  0  0  0  0
  4  8  1  0  0  0  0
  5  6  1  0  0  0  0
  6  7  1  0  0  0  0
  7  8  2  0  0  0  0
  8  9  1  0  0  0  0
M  END
> <Index>
13135

> <PropertyFieldDistance>
nan

$$$$
11759908
BBcorina  12272117083D 1   1.00000     0.00000 
CORINA 4.3.0 0026  30.10.2019
  9  9  0  0  0  0  0  0  0  0999 V2000
  -36.0191    3.9414  -44.5845 N   0  0  0  0  0  0  0  0  0  0  0  0
  -36.9723    4.0087  -43.4694 C   0  0  0  0  0  0  0  0  0  0  0  0
  -36.6793    5.2476  -42.6202 C   0  0  0  0  0  0  0  0  0  0  0  0
  -35.2462    5.1676  -42.0871 C   0  0  0  0  0  0  0  0  0  0  0  0
  -34.2770    5.0496  -43.2665 C   0  0  0  0  0  0  0  0  0  0  0  0
  -34.6396    3.8164  -44.0970 C   0  0  0  0  0  0  0  0  0  0  0  0
  -32.9013    4.9141  -42.7605 C   0  0  0  0  0  0  0  0  0  0  0  0
  -31.8042    4.8061  -42.3570 C   0  0  0  0  0  0  0  0  0  0  0  0
  -36.4110    2.6621  -45.6494 X   0  0  0  0  0  0  0  0  0  0  0  0
  1  2  1  0  0  0  0
  1  6  1  0  0  0  0
  1  9  1  0  0  0  0
  2  3  1  0  0  0  0
  3  4  1  0  0  0  0
  4  5  1  0  0  0  0
  5  6  1  0  0  0  0
  5  7  1  0  0  0  0
  7  8  3  0  0  0  0
M  END
> <Index>
13136

> <PropertyFieldDistance>
nan

$$$$
10854824
BBcorina  12272117083D 1   1.00000     0.00000 
CORINA 4.3.0 0026  30.10.2019
  9  9  0  0  0  0  0  0  0  0999 V2000
  -35.4660    3.1866  -46.5997 C   0  0  0  0  0  0  0  0  0  0  0  0
  -36.3546    2.9013  -45.5176 O   0  0  0  0  0  0  0  0  0  0  0  0
  -35.9652    3.5180  -44.2494 N   0  0  0  0  0  0  0  0  0  0  0  0
  -37.0136    4.4246  -43.7608 C   0  0  0  0  0  0  0  0  0  0  0  0
  -36.6039    4.9864  -42.3974 C   0  0  0  0  0  0  0  0  0  0  0  0
  -35.3206    5.6908  -42.5264 N   0  0  0  0  0  0  0  0  0  0  0  0
  -34.2722    4.7843  -43.0150 C   0  0  0  0  0  0  0  0  0  0  0  0
  -34.6821    4.2224  -44.3784 C   0  0  0  0  0  0  0  0  0  0  0  0
  -34.8655    6.4116  -41.0440 X   0  0  0  0  0  0  0  0  0  0  0  0
  1  2  1  0  0  0  0
  2  3  1  0  0  0  0
  3  4  1  0  0  0  0
  3  8  1  0  0  0  0
  4  5  1  0  0  0  0
  5  6  1  0  0  0  0
  6  7  1  0  0  0  0
  6  9  1  0  0  0  0
  7  8  1  0  0  0  0
M  END
> <Index>
13140

> <PropertyFieldDistance>
nan

$$$$
8765738
BBcorina  12272117083D 1   1.00000     0.00000 
CORINA 4.3.0 0026  30.10.2019
 11 12  0  0  0  0  0  0  0  0999 V2000
  -36.0245    3.9834  -44.5651 N   0  0  0  0  0  0  0  0  0  0  0  0
  -36.8799    3.9703  -43.3688 C   0  0  0  0  0  0  0  0  0  0  0  0
  -36.7356    5.3029  -42.6218 C   0  0  0  0  0  0  0  0  0  0  0  0
  -35.3043    5.5608  -42.4231 N   0  0  0  0  0  0  0  0  0  0  0  0
  -34.3118    4.9315  -43.1527 C   0  0  0  0  0  0  0  0  0  0  0  0
  -34.6015    3.8776  -44.1959 C   0  0  0  0  0  0  0  0  0  0  0  0
  -33.1686    5.3937  -42.7848 N   0  0  0  0  0  0  0  0  0  0  0  0
  -33.3865    6.3436  -41.7745 N   0  0  0  0  0  0  0  0  0  0  0  0
  -34.7234    6.4091  -41.5632 C   0  0  0  0  0  0  0  0  0  0  0  0
  -35.2919    7.1094  -40.7446 O   0  0  0  0  0  0  0  0  0  0  0  0
  -36.4701    2.7394  -45.6506 X   0  0  0  0  0  0  0  0  0  0  0  0
  1  2  1  0  0  0  0
  1  6  1  0  0  0  0
  1 11  1  0  0  0  0
  2  3  1  0  0  0  0
  3  4  1  0  0  0  0
  4  5  1  0  0  0  0
  4  9  1  0  0  0  0
  5  6  1  0  0  0  0
  5  7  2  0  0  0  0
  7  8  1  0  0  0  0
  8  9  1  0  0  0  0
  9 10  2  0  0  0  0
M  END
> <Index>
13141

> <PropertyFieldDistance>
nan

$$$$
13460974
BBcorina  12272117083D 1   1.00000     0.00000 
CORINA 4.3.0 0026  30.10.2019
  8  8  0  0  0  0  0  0  0  0999 V2000
  -36.0642    3.5302  -44.4138 N   0  0  0  0  0  0  0  0  0  0  0  0
  -36.9955    4.5501  -43.8664 C   0  0  0  0  0  0  0  0  0  0  0  0
  -36.4720    4.8297  -42.4413 C   0  0  0  0  0  0  0  0  0  0  0  0
  -34.9803    4.4382  -42.4781 C   0  0  0  0  0  0  0  0  0  0  0  0
  -34.7261    3.9531  -43.9215 C   0  0  0  0  0  0  0  0  0  0  0  0
  -34.1997    5.0522  -44.7472 C   0  0  0  0  0  0  0  0  0  0  0  0
  -33.7800    5.9288  -45.4057 C   0  0  0  0  0  0  0  0  0  0  0  0
  -36.1112    3.5121  -46.1231 X   0  0  0  0  0  0  0  0  0  0  0  0
  1  2  1  0  0  0  0
  1  5  1  0  0  0  0
  1  8  1  0  0  0  0
  2  3  1  0  0  0  0
  3  4  1  0  0  0  0
  4  5  1  0  0  0  0
  5  6  1  0  0  0  0
  6  7  3  0  0  0  0
M  END
> <Index>
13142

> <PropertyFieldDistance>
nan

$$$$
10975292
BBcorina  12272117083D 1   1.00000     0.00000 
CORINA 4.3.0 0026  30.10.2019
 10 10  0  0  0  0  0  0  0  0999 V2000
  -37.2335    5.4138  -44.9132 C   0  0  0  0  0  0  0  0  0  0  0  0
  -37.0290    4.3869  -43.7978 C   0  0  0  0  0  0  0  0  0  0  0  0
  -36.6587    5.1099  -42.5007 C   0  0  0  0  0  0  0  0  0  0  0  0
  -37.7752    6.0848  -42.1217 C   0  0  0  0  0  0  0  0  0  0  0  0
  -37.4814    6.6762  -40.8544 O   0  0  0  0  0  0  0  0  0  0  0  0
  -35.3534    5.8832  -42.7080 C   0  0  0  0  0  0  0  0  0  0  0  0
  -34.2559    4.9088  -43.1443 C   0  0  0  0  0  0  0  0  0  0  0  0
  -34.6959    4.1916  -44.4226 C   0  0  0  0  0  0  0  0  0  0  0  0
  -35.9479    3.4664  -44.1723 N   0  0  0  0  0  0  0  0  0  0  0  0
  -36.3899    2.5210  -45.5269 X   0  0  0  0  0  0  0  0  0  0  0  0
  1  2  1  0  0  0  0
  2  3  1  0  0  0  0
  2  9  1  0  0  0  0
  3  4  1  0  0  0  0
  3  6  1  0  0  0  0
  4  5  1  0  0  0  0
  6  7  1  0  0  0  0
  7  8  1  0  0  0  0
  8  9  1  0  0  0  0
  9 10  1  0  0  0  0
M  END
> <Index>
13145

> <PropertyFieldDistance>
nan

$$$$
9045924
BBcorina  12272117083D 1   1.00000     0.00000 
CORINA 4.3.0 0026  30.10.2019
 11 11  0  0  0  0  0  0  0  0999 V2000
  -37.1378    0.8089  -46.5648 C   0  0  0  0  0  0  0  0  0  0  0  0
  -36.9408    1.5689  -45.2516 C   0  0  0  0  0  0  0  0  0  0  0  0
  -36.5367    0.6561  -44.2291 O   0  0  0  0  0  0  0  0  0  0  0  0
  -35.8613    2.6370  -45.4375 C   0  0  0  0  0  0  0  0  0  0  0  0
  -35.6798    3.3738  -44.1796 N   0  0  0  0  0  0  0  0  0  0  0  0
  -36.8843    4.1454  -43.8427 C   0  0  0  0  0  0  0  0  0  0  0  0
  -36.6846    4.8330  -42.4901 C   0  0  0  0  0  0  0  0  0  0  0  0
  -35.5048    5.7064  -42.5569 N   0  0  0  0  0  0  0  0  0  0  0  0
  -34.3002    4.9349  -42.8939 C   0  0  0  0  0  0  0  0  0  0  0  0
  -34.4999    4.2473  -44.2466 C   0  0  0  0  0  0  0  0  0  0  0  0
  -35.2934    6.5641  -41.0927 X   0  0  0  0  0  0  0  0  0  0  0  0
  1  2  1  0  0  0  0
  2  3  1  0  0  0  0
  2  4  1  0  0  0  0
  4  5  1  0  0  0  0
  5  6  1  0  0  0  0
  5 10  1  0  0  0  0
  6  7  1  0  0  0  0
  7  8  1  0  0  0  0
  8  9  1  0  0  0  0
  8 11  1  0  0  0  0
  9 10  1  0  0  0  0
M  END
> <Index>
13146

> <PropertyFieldDistance>
nan

$$$$
9105444
BBcorina  12272117083D 1   1.00000     0.00000 
CORINA 4.3.0 0026  30.10.2019
 11 11  0  0  0  0  0  0  0  0999 V2000
  -37.1378    0.8089  -46.5648 C   0  0  0  0  0  0  0  0  0  0  0  0
  -36.9408    1.5689  -45.2516 C   0  0  0  0  0  0  0  0  0  0  0  0
  -36.5367    0.6561  -44.2291 O   0  0  0  0  0  0  0  0  0  0  0  0
  -35.8613    2.6370  -45.4375 C   0  0  0  0  0  0  0  0  0  0  0  0
  -35.6798    3.3738  -44.1796 N   0  0  0  0  0  0  0  0  0  0  0  0
  -36.8843    4.1454  -43.8427 C   0  0  0  0  0  0  0  0  0  0  0  0
  -36.6846    4.8330  -42.4901 C   0  0  0  0  0  0  0  0  0  0  0  0
  -35.5048    5.7064  -42.5569 N   0  0  0  0  0  0  0  0  0  0  0  0
  -34.3002    4.9349  -42.8939 C   0  0  0  0  0  0  0  0  0  0  0  0
  -34.4999    4.2473  -44.2466 C   0  0  0  0  0  0  0  0  0  0  0  0
  -35.2934    6.5641  -41.0927 X   0  0  0  0  0  0  0  0  0  0  0  0
  1  2  1  0  0  0  0
  2  3  1  0  0  0  0
  2  4  1  0  0  0  0
  4  5  1  0  0  0  0
  5  6  1  0  0  0  0
  5 10  1  0  0  0  0
  6  7  1  0  0  0  0
  7  8  1  0  0  0  0
  8  9  1  0  0  0  0
  8 11  1  0  0  0  0
  9 10  1  0  0  0  0
M  END
> <Index>
13147

> <PropertyFieldDistance>
nan

$$$$
9329042
BBcorina  12272117083D 1   1.00000     0.00000 
CORINA 4.3.0 0026  30.10.2019
 11 12  0  0  0  0  0  0  0  0999 V2000
  -33.7583    7.4218  -40.8193 Br  0  0  0  0  0  0  0  0  0  0  0  0
  -35.2765    6.4664  -41.4178 C   0  0  0  0  0  0  0  0  0  0  0  0
  -36.5326    6.5538  -40.9245 C   0  0  0  0  0  0  0  0  0  0  0  0
  -37.3147    5.7141  -41.6240 N   0  0  0  0  0  0  0  0  0  0  0  0
  -36.5979    5.1134  -42.5252 C   0  0  0  0  0  0  0  0  0  0  0  0
  -37.0443    4.0899  -43.5420 C   0  0  0  0  0  0  0  0  0  0  0  0
  -35.9994    3.9846  -44.5752 N   0  0  0  0  0  0  0  0  0  0  0  0
  -34.6730    3.7929  -43.9717 C   0  0  0  0  0  0  0  0  0  0  0  0
  -34.2253    5.0902  -43.2861 C   0  0  0  0  0  0  0  0  0  0  0  0
  -35.3177    5.5554  -42.4274 N   0  0  0  0  0  0  0  0  0  0  0  0
  -36.3561    2.7307  -45.6818 X   0  0  0  0  0  0  0  0  0  0  0  0
  1  2  1  0  0  0  0
  2  3  2  0  0  0  0
  2 10  1  0  0  0  0
  3  4  1  0  0  0  0
  4  5  2  0  0  0  0
  5  6  1  0  0  0  0
  5 10  1  0  0  0  0
  6  7  1  0  0  0  0
  7  8  1  0  0  0  0
  7 11  1  0  0  0  0
  8  9  1  0  0  0  0
  9 10  1  0  0  0  0
M  END
> <Index>
13171

> <PropertyFieldDistance>
nan

$$$$
17792934
BBcorina  12272117083D 1   1.00000     0.00000 
CORINA 4.3.0 0026  30.10.2019
 11 12  0  0  0  0  0  0  0  0999 V2000
  -35.9634    3.4675  -44.1602 N   0  0  0  0  0  0  0  0  0  0  0  0
  -36.9730    4.4889  -43.8400 C   0  0  0  0  0  0  0  0  0  0  0  0
  -36.6948    5.0276  -42.4356 C   0  0  0  0  0  0  0  0  0  0  0  0
  -35.2474    5.4246  -42.3180 C   0  0  0  0  0  0  0  0  0  0  0  0
  -34.8531    6.2472  -41.2762 C   0  0  0  0  0  0  0  0  0  0  0  0
  -33.5926    6.6077  -41.1405 N   0  0  0  0  0  0  0  0  0  0  0  0
  -32.6619    6.2045  -41.9831 C   0  0  0  0  0  0  0  0  0  0  0  0
  -32.9823    5.3839  -43.0478 C   0  0  0  0  0  0  0  0  0  0  0  0
  -34.3008    4.9851  -43.2219 C   0  0  0  0  0  0  0  0  0  0  0  0
  -34.6552    4.0946  -44.3800 C   0  0  0  0  0  0  0  0  0  0  0  0
  -36.4361    2.5434  -45.5192 X   0  0  0  0  0  0  0  0  0  0  0  0
  1  2  1  0  0  0  0
  1 10  1  0  0  0  0
  1 11  1  0  0  0  0
  2  3  1  0  0  0  0
  3  4  1  0  0  0  0
  4  5  2  0  0  0  0
  4  9  1  0  0  0  0
  5  6  1  0  0  0  0
  6  7  2  0  0  0  0
  7  8  1  0  0  0  0
  8  9  2  0  0  0  0
  9 10  1  0  0  0  0
M  END
> <Index>
13172

> <PropertyFieldDistance>
nan

$$$$
13755872
BBcorina  12272117083D 1   1.00000     0.00000 
CORINA 4.3.0 0026  30.10.2019
 13 14  0  0  0  0  0  0  0  0999 V2000
  -35.4391   -0.1182  -47.3668 C   0  0  0  0  0  0  0  0  0  0  0  0
  -36.0898    0.6478  -46.2438 C   0  0  0  0  0  0  0  0  0  0  0  0
  -37.1226    0.1698  -45.5492 C   0  0  0  0  0  0  0  0  0  0  0  0
  -37.5686    1.3681  -44.3374 S   0  0  0  0  0  0  0  0  0  0  0  0
  -36.3252    2.4040  -44.8887 C   0  0  0  0  0  0  0  0  0  0  0  0
  -35.6830    1.8475  -45.8683 N   0  0  0  0  0  0  0  0  0  0  0  0
  -36.0411    3.6541  -44.3614 N   0  0  0  0  0  0  0  0  0  0  0  0
  -36.9585    3.9825  -43.2613 C   0  0  0  0  0  0  0  0  0  0  0  0
  -36.6645    5.3986  -42.7606 C   0  0  0  0  0  0  0  0  0  0  0  0
  -35.2658    5.4779  -42.3168 N   0  0  0  0  0  0  0  0  0  0  0  0
  -34.3480    5.1498  -43.4166 C   0  0  0  0  0  0  0  0  0  0  0  0
  -34.6420    3.7336  -43.9175 C   0  0  0  0  0  0  0  0  0  0  0  0
  -34.9158    7.0201  -41.6662 X   0  0  0  0  0  0  0  0  0  0  0  0
  1  2  1  0  0  0  0
  2  3  2  0  0  0  0
  2  6  1  0  0  0  0
  3  4  1  0  0  0  0
  4  5  1  0  0  0  0
  5  6  2  0  0  0  0
  5  7  1  0  0  0  0
  7  8  1  0  0  0  0
  7 12  1  0  0  0  0
  8  9  1  0  0  0  0
  9 10  1  0  0  0  0
 10 11  1  0  0  0  0
 10 13  1  0  0  0  0
 11 12  1  0  0  0  0
M  END
> <Index>
13180

> <PropertyFieldDistance>
nan

$$$$
10893976
BBcorina  12272117083D 1   1.00000     0.00000 
CORINA 4.3.0 0026  30.10.2019
 11 11  0  0  0  0  0  0  0  0999 V2000
  -36.6292    3.2679  -46.8332 C   0  0  0  0  0  0  0  0  0  0  0  0
  -36.3541    2.8471  -45.4956 O   0  0  0  0  0  0  0  0  0  0  0  0
  -36.0190    3.9415  -44.5844 N   0  0  0  0  0  0  0  0  0  0  0  0
  -36.9724    4.0086  -43.4695 C   0  0  0  0  0  0  0  0  0  0  0  0
  -36.6793    5.2476  -42.6202 C   0  0  0  0  0  0  0  0  0  0  0  0
  -35.2462    5.1675  -42.0869 C   0  0  0  0  0  0  0  0  0  0  0  0
  -34.2770    5.0495  -43.2665 C   0  0  0  0  0  0  0  0  0  0  0  0
  -34.6396    3.8164  -44.0971 C   0  0  0  0  0  0  0  0  0  0  0  0
  -34.9396    6.3818  -41.3192 N   0  0  0  0  0  0  0  0  0  0  0  0
  -33.6142    6.2880  -40.6929 C   0  0  0  0  0  0  0  0  0  0  0  0
  -36.1493    6.6895  -40.1503 X   0  0  0  0  0  0  0  0  0  0  0  0
  1  2  1  0  0  0  0
  2  3  1  0  0  0  0
  3  4  1  0  0  0  0
  3  8  1  0  0  0  0
  4  5  1  0  0  0  0
  5  6  1  0  0  0  0
  6  7  1  0  0  0  0
  6  9  1  0  0  0  0
  7  8  1  0  0  0  0
  9 10  1  0  0  0  0
  9 11  1  0  0  0  0
M  END
> <Index>
13184

> <PropertyFieldDistance>
nan

$$$$
10891450
BBcorina  12272117083D 1   1.00000     0.00000 
CORINA 4.3.0 0026  30.10.2019
 10 10  0  0  0  0  0  0  0  0999 V2000
  -37.4012    5.6501  -44.6727 C   0  0  0  0  0  0  0  0  0  0  0  0
  -37.0408    4.4354  -43.8150 C   0  0  0  0  0  0  0  0  0  0  0  0
  -38.2783    3.5660  -43.5830 C   0  0  0  0  0  0  0  0  0  0  0  0
  -38.7406    3.0199  -44.8658 N   0  0  0  0  0  0  0  0  0  0  0  0
  -36.4473    4.8921  -42.4639 C   0  0  0  0  0  0  0  0  0  0  0  0
  -34.9290    4.8784  -42.7683 C   0  0  0  0  0  0  0  0  0  0  0  0
  -34.7861    3.8846  -43.8999 C   0  0  0  0  0  0  0  0  0  0  0  0
  -33.7428    3.3733  -44.2479 O   0  0  0  0  0  0  0  0  0  0  0  0
  -35.9836    3.6510  -44.4642 N   0  0  0  0  0  0  0  0  0  0  0  0
  -40.1253    2.0398  -44.6513 X   0  0  0  0  0  0  0  0  0  0  0  0
  1  2  1  0  0  0  0
  2  3  1  0  0  0  0
  2  5  1  0  0  0  0
  2  9  1  0  0  0  0
  3  4  1  0  0  0  0
  4 10  1  0  0  0  0
  5  6  1  0  0  0  0
  6  7  1  0  0  0  0
  7  8  2  0  0  0  0
  7  9  1  0  0  0  0
M  END
> <Index>
13189

> <PropertyFieldDistance>
nan

$$$$
8925968
BBcorina  12272117083D 1   1.00000     0.00000 
CORINA 4.3.0 0026  30.10.2019
 12 12  0  0  0  0  0  0  0  0999 V2000
  -39.2698    0.5659  -46.3601 C   0  0  0  0  0  0  0  0  0  0  0  0
  -37.7747    0.8317  -46.1732 C   0  0  0  0  0  0  0  0  0  0  0  0
  -37.5920    1.9646  -45.2836 O   0  0  0  0  0  0  0  0  0  0  0  0
  -36.3251    2.3316  -45.0135 C   0  0  0  0  0  0  0  0  0  0  0  0
  -35.3975    1.7219  -45.5076 O   0  0  0  0  0  0  0  0  0  0  0  0
  -36.0858    3.3753  -44.1950 N   0  0  0  0  0  0  0  0  0  0  0  0
  -37.1093    4.1975  -43.5332 C   0  0  0  0  0  0  0  0  0  0  0  0
  -36.3704    5.2506  -42.6809 C   0  0  0  0  0  0  0  0  0  0  0  0
  -34.9759    4.6059  -42.4642 C   0  0  0  0  0  0  0  0  0  0  0  0
  -34.7544    3.8821  -43.8158 C   0  0  0  0  0  0  0  0  0  0  0  0
  -33.9494    5.6333  -42.2427 N   0  0  0  0  0  0  0  0  0  0  0  0
  -33.9577    6.7894  -43.5027 X   0  0  0  0  0  0  0  0  0  0  0  0
  1  2  1  0  0  0  0
  2  3  1  0  0  0  0
  3  4  1  0  0  0  0
  4  5  2  0  0  0  0
  4  6  1  0  0  0  0
  6  7  1  0  0  0  0
  6 10  1  0  0  0  0
  7  8  1  0  0  0  0
  8  9  1  0  0  0  0
  9 10  1  0  0  0  0
  9 11  1  0  0  0  0
 11 12  1  0  0  0  0
M  END
> <Index>
13197

> <PropertyFieldDistance>
nan

$$$$
11350000
BBcorina  12272117083D 1   1.00000     0.00000 
CORINA 4.3.0 0026  30.10.2019
 10 10  0  0  0  0  0  0  0  0999 V2000
  -36.0366    5.9680  -40.3973 N   0  0  0  0  0  0  0  0  0  0  0  0
  -35.8621    5.7392  -41.8379 C   0  0  0  0  0  0  0  0  0  0  0  0
  -36.9327    4.7714  -42.3079 C   0  0  0  0  0  0  0  0  0  0  0  0
  -36.9241    4.6475  -43.8328 C   0  0  0  0  0  0  0  0  0  0  0  0
  -35.9470    3.6156  -44.2162 N   0  0  0  0  0  0  0  0  0  0  0  0
  -34.6388    3.8483  -44.1018 C   0  0  0  0  0  0  0  0  0  0  0  0
  -33.8423    2.9914  -44.4214 O   0  0  0  0  0  0  0  0  0  0  0  0
  -34.1447    5.1808  -43.5791 C   0  0  0  0  0  0  0  0  0  0  0  0
  -34.4454    5.2506  -42.0799 C   0  0  0  0  0  0  0  0  0  0  0  0
  -35.7859    4.5261  -39.5129 X   0  0  0  0  0  0  0  0  0  0  0  0
  1  2  1  0  0  0  0
  1 10  1  0  0  0  0
  2  3  1  0  0  0  0
  2  9  1  0  0  0  0
  3  4  1  0  0  0  0
  4  5  1  0  0  0  0
  5  6  1  0  0  0  0
  6  7  2  0  0  0  0
  6  8  1  0  0  0  0
  8  9  1  0  0  0  0
M  END
> <Index>
13209

> <PropertyFieldDistance>
nan

$$$$
11350002
BBcorina  12272117083D 1   1.00000     0.00000 
CORINA 4.3.0 0026  30.10.2019
 13 14  0  0  0  0  0  0  0  0999 V2000
  -35.2517    5.7272  -42.7086 N   0  0  0  0  0  0  0  0  0  0  0  0
  -36.5104    5.0792  -42.3144 C   0  0  0  0  0  0  0  0  0  0  0  0
  -37.0927    4.3292  -43.5148 C   0  0  0  0  0  0  0  0  0  0  0  0
  -36.1183    3.3364  -43.9885 N   0  0  0  0  0  0  0  0  0  0  0  0
  -36.6706    2.5427  -45.0944 C   0  0  0  0  0  0  0  0  0  0  0  0
  -35.5753    1.7129  -45.7131 C   0  0  0  0  0  0  0  0  0  0  0  0
  -35.2081    0.4185  -45.3314 C   0  0  0  0  0  0  0  0  0  0  0  0
  -34.2207    0.0309  -46.0975 N   0  0  0  0  0  0  0  0  0  0  0  0
  -33.9281    1.0682  -46.9924 N   0  0  0  0  0  0  0  0  0  0  0  0
  -34.7731    2.0887  -46.7361 C   0  0  0  0  0  0  0  0  0  0  0  0
  -34.8596    3.9845  -44.3827 C   0  0  0  0  0  0  0  0  0  0  0  0
  -34.2773    4.7344  -43.1823 C   0  0  0  0  0  0  0  0  0  0  0  0
  -34.6088    6.6511  -41.4212 X   0  0  0  0  0  0  0  0  0  0  0  0
  1  2  1  0  0  0  0
  1 12  1  0  0  0  0
  1 13  1  0  0  0  0
  2  3  1  0  0  0  0
  3  4  1  0  0  0  0
  4  5  1  0  0  0  0
  4 11  1  0  0  0  0
  5  6  1  0  0  0  0
  6  7  1  0  0  0  0
  6 10  2  0  0  0  0
  7  8  2  0  0  0  0
  8  9  1  0  0  0  0
  9 10  1  0  0  0  0
 11 12  1  0  0  0  0
M  END
> <Index>
13210

> <PropertyFieldDistance>
nan

$$$$
11352400
BBcorina  12272117083D 1   1.00000     0.00000 
CORINA 4.3.0 0026  30.10.2019
 11 12  0  0  0  0  0  0  0  0999 V2000
  -36.0172    3.5927  -44.4913 N   0  0  0  0  0  0  0  0  0  0  0  0
  -36.3933    2.1751  -44.5752 C   0  0  0  0  0  0  0  0  0  0  0  0
  -36.1059    1.6538  -45.9847 C   0  0  0  0  0  0  0  0  0  0  0  0
  -37.0100    2.3728  -46.9884 C   0  0  0  0  0  0  0  0  0  0  0  0
  -37.8900    1.3457  -47.7141 C   0  0  0  0  0  0  0  0  0  0  0  0
  -38.7530    0.6266  -46.6694 C   0  0  0  0  0  0  0  0  0  0  0  0
  -37.8489   -0.0925  -45.6656 C   0  0  0  0  0  0  0  0  0  0  0  0
  -36.3795    0.1443  -46.0370 C   0  0  0  0  0  0  0  0  0  0  0  0
  -36.1826   -0.3115  -47.4752 C   0  0  0  0  0  0  0  0  0  0  0  0
  -36.9690    0.3138  -48.3481 C   0  0  0  0  0  0  0  0  0  0  0  0
  -36.3230    4.2163  -42.9286 X   0  0  0  0  0  0  0  0  0  0  0  0
  1  2  1  0  0  0  0
  1 11  1  0  0  0  0
  2  3  1  0  0  0  0
  3  4  1  0  0  0  0
  3  8  1  0  0  0  0
  4  5  1  0  0  0  0
  5  6  1  0  0  0  0
  5 10  1  0  0  0  0
  6  7  1  0  0  0  0
  7  8  1  0  0  0  0
  8  9  1  0  0  0  0
  9 10  2  0  0  0  0
M  END
> <Index>
13215

> <PropertyFieldDistance>
nan

$$$$
13602856
BBcorina  12272117083D 1   1.00000     0.00000 
CORINA 4.3.0 0026  30.10.2019
 14 15  0  0  0  0  0  0  0  0999 V2000
  -37.7787    5.3940  -44.5847 C   0  0  0  0  0  0  0  0  0  0  0  0
  -37.0948    4.3295  -43.7244 C   0  0  0  0  0  0  0  0  0  0  0  0
  -38.1255    3.3095  -43.2361 C   0  0  0  0  0  0  0  0  0  0  0  0
  -36.4025    4.9956  -42.5168 C   0  0  0  0  0  0  0  0  0  0  0  0
  -34.9316    5.1342  -42.9898 C   0  0  0  0  0  0  0  0  0  0  0  0
  -34.7493    3.8437  -43.8272 C   0  0  0  0  0  0  0  0  0  0  0  0
  -36.0474    3.6486  -44.5075 N   0  0  0  0  0  0  0  0  0  0  0  0
  -36.3511    2.2197  -44.6625 C   0  0  0  0  0  0  0  0  0  0  0  0
  -37.3454    2.0295  -45.8112 C   0  0  0  0  0  0  0  0  0  0  0  0
  -37.6111    0.5352  -46.0073 C   0  0  0  0  0  0  0  0  0  0  0  0
  -36.3491   -0.1518  -46.3100 N   0  0  0  0  0  0  0  0  0  0  0  0
  -35.3951   -0.0231  -45.2010 C   0  0  0  0  0  0  0  0  0  0  0  0
  -35.0634    1.4545  -44.9807 C   0  0  0  0  0  0  0  0  0  0  0  0
  -36.6231   -1.7953  -46.6949 X   0  0  0  0  0  0  0  0  0  0  0  0
  1  2  1  0  0  0  0
  2  3  1  0  0  0  0
  2  4  1  0  0  0  0
  2  7  1  0  0  0  0
  4  5  1  0  0  0  0
  5  6  1  0  0  0  0
  6  7  1  0  0  0  0
  7  8  1  0  0  0  0
  8  9  1  0  0  0  0
  8 13  1  0  0  0  0
  9 10  1  0  0  0  0
 10 11  1  0  0  0  0
 11 12  1  0  0  0  0
 11 14  1  0  0  0  0
 12 13  1  0  0  0  0
M  END
> <Index>
13248

> <PropertyFieldDistance>
nan

$$$$
10863160
BBcorina  12272117083D 1   1.00000     0.00000 
CORINA 4.3.0 0026  30.10.2019
 15 15  0  0  0  0  0  0  0  0999 V2000
  -33.4707    7.3758  -42.1626 C   0  0  0  0  0  0  0  0  0  0  0  0
  -34.6459    6.6030  -41.7391 N   0  0  0  0  0  0  0  0  0  0  0  0
  -35.2318    5.8727  -42.8712 C   0  0  0  0  0  0  0  0  0  0  0  0
  -36.5217    5.1811  -42.4214 C   0  0  0  0  0  0  0  0  0  0  0  0
  -37.0947    4.3728  -43.5878 C   0  0  0  0  0  0  0  0  0  0  0  0
  -36.1096    3.3750  -44.0239 N   0  0  0  0  0  0  0  0  0  0  0  0
  -36.6762    2.4891  -45.0495 C   0  0  0  0  0  0  0  0  0  0  0  0
  -35.5625    1.6328  -45.6557 C   0  0  0  0  0  0  0  0  0  0  0  0
  -36.1526    0.7101  -46.7239 C   0  0  0  0  0  0  0  0  0  0  0  0
  -36.7476    1.4806  -47.7286 F   0  0  0  0  0  0  0  0  0  0  0  0
  -35.1342   -0.0729  -47.2781 F   0  0  0  0  0  0  0  0  0  0  0  0
  -37.1156   -0.1212  -46.1418 F   0  0  0  0  0  0  0  0  0  0  0  0
  -34.8799    4.0177  -44.5049 C   0  0  0  0  0  0  0  0  0  0  0  0
  -34.2408    4.8154  -43.3659 C   0  0  0  0  0  0  0  0  0  0  0  0
  -34.2509    5.5377  -40.4611 X   0  0  0  0  0  0  0  0  0  0  0  0
  1  2  1  0  0  0  0
  2  3  1  0  0  0  0
  2 15  1  0  0  0  0
  3  4  1  0  0  0  0
  3 14  1  0  0  0  0
  4  5  1  0  0  0  0
  5  6  1  0  0  0  0
  6  7  1  0  0  0  0
  6 13  1  0  0  0  0
  7  8  1  0  0  0  0
  8  9  1  0  0  0  0
  9 10  1  0  0  0  0
  9 11  1  0  0  0  0
  9 12  1  0  0  0  0
 13 14  1  0  0  0  0
M  END
> <Index>
13250

> <PropertyFieldDistance>
nan

$$$$
13944446
BBcorina  12272117083D 1   1.00000     0.00000 
CORINA 4.3.0 0026  30.10.2019
 11 13  0  0  0  0  0  0  0  0999 V2000
  -35.9671    3.7498  -44.3266 N   0  0  0  0  0  0  0  0  0  0  0  0
  -36.8885    4.7531  -43.7825 C   0  0  0  0  0  0  0  0  0  0  0  0
  -37.0617    4.5338  -42.2775 C   0  0  0  0  0  0  0  0  0  0  0  0
  -35.6925    4.6395  -41.5984 C   0  0  0  0  0  0  0  0  0  0  0  0
  -35.1078    6.0308  -41.8485 C   0  0  0  0  0  0  0  0  0  0  0  0
  -34.9573    6.2695  -43.3519 C   0  0  0  0  0  0  0  0  0  0  0  0
  -36.3289    6.1567  -44.0249 C   0  0  0  0  0  0  0  0  0  0  0  0
  -34.0297    5.2048  -43.9458 C   0  0  0  0  0  0  0  0  0  0  0  0
  -34.6403    3.8222  -43.7053 C   0  0  0  0  0  0  0  0  0  0  0  0
  -34.7612    3.5813  -42.1985 C   0  0  0  0  0  0  0  0  0  0  0  0
  -35.8549    3.8795  -46.0279 X   0  0  0  0  0  0  0  0  0  0  0  0
  1  2  1  0  0  0  0
  1  9  1  0  0  0  0
  1 11  1  0  0  0  0
  2  3  1  0  0  0  0
  2  7  1  0  0  0  0
  3  4  1  0  0  0  0
  4  5  1  0  0  0  0
  4 10  1  0  0  0  0
  5  6  1  0  0  0  0
  6  7  1  0  0  0  0
  6  8  1  0  0  0  0
  8  9  1  0  0  0  0
  9 10  1  0  0  0  0
M  END
> <Index>
13257

> <PropertyFieldDistance>
nan

$$$$
9983454
BBcorina  12272117083D 1   1.00000     0.00000 
CORINA 4.3.0 0026  30.10.2019
 14 15  0  0  0  0  0  0  0  0999 V2000
  -39.6931    1.9759  -47.3784 Br  0  0  0  0  0  0  0  0  0  0  0  0
  -37.9822    1.7844  -46.5961 C   0  0  0  0  0  0  0  0  0  0  0  0
  -37.1151    0.8112  -47.0600 C   0  0  0  0  0  0  0  0  0  0  0  0
  -35.8631    0.6681  -46.4903 C   0  0  0  0  0  0  0  0  0  0  0  0
  -35.4744    1.4964  -45.4560 C   0  0  0  0  0  0  0  0  0  0  0  0
  -36.3448    2.4708  -44.9833 C   0  0  0  0  0  0  0  0  0  0  0  0
  -37.5992    2.6165  -45.5612 C   0  0  0  0  0  0  0  0  0  0  0  0
  -35.9567    3.3058  -43.9331 N   0  0  0  0  0  0  0  0  0  0  0  0
  -37.0241    4.2576  -43.5950 C   0  0  0  0  0  0  0  0  0  0  0  0
  -36.5918    5.0986  -42.3916 C   0  0  0  0  0  0  0  0  0  0  0  0
  -35.3434    5.8041  -42.7135 N   0  0  0  0  0  0  0  0  0  0  0  0
  -34.2760    4.8523  -43.0515 C   0  0  0  0  0  0  0  0  0  0  0  0
  -34.7083    4.0113  -44.2550 C   0  0  0  0  0  0  0  0  0  0  0  0
  -34.8683    6.8264  -41.4277 X   0  0  0  0  0  0  0  0  0  0  0  0
  1  2  1  0  0  0  0
  2  3  2  0  0  0  0
  2  7  1  0  0  0  0
  3  4  1  0  0  0  0
  4  5  2  0  0  0  0
  5  6  1  0  0  0  0
  6  7  2  0  0  0  0
  6  8  1  0  0  0  0
  8  9  1  0  0  0  0
  8 13  1  0  0  0  0
  9 10  1  0  0  0  0
 10 11  1  0  0  0  0
 11 12  1  0  0  0  0
 11 14  1  0  0  0  0
 12 13  1  0  0  0  0
M  END
> <Index>
13270

> <PropertyFieldDistance>
nan

$$$$
15414734
BBcorina  12272117083D 1   1.00000     0.00000 
CORINA 4.3.0 0026  30.10.2019
 14 15  0  0  0  0  0  0  0  0999 V2000
  -36.3611    2.4252  -45.0196 C   0  0  0  0  0  0  0  0  0  0  0  0
  -35.9529    3.3097  -43.9201 N   0  0  0  0  0  0  0  0  0  0  0  0
  -37.0213    4.2620  -43.5860 C   0  0  0  0  0  0  0  0  0  0  0  0
  -36.5888    5.1099  -42.3875 C   0  0  0  0  0  0  0  0  0  0  0  0
  -35.3417    5.8154  -42.7143 N   0  0  0  0  0  0  0  0  0  0  0  0
  -34.2733    4.8631  -43.0484 C   0  0  0  0  0  0  0  0  0  0  0  0
  -34.7059    4.0152  -44.2469 C   0  0  0  0  0  0  0  0  0  0  0  0
  -33.6290    3.0108  -44.5670 C   0  0  0  0  0  0  0  0  0  0  0  0
  -32.7457    3.2507  -45.6029 C   0  0  0  0  0  0  0  0  0  0  0  0
  -31.7577    2.3295  -45.8962 C   0  0  0  0  0  0  0  0  0  0  0  0
  -31.6529    1.1683  -45.1535 C   0  0  0  0  0  0  0  0  0  0  0  0
  -32.5364    0.9282  -44.1179 C   0  0  0  0  0  0  0  0  0  0  0  0
  -33.5210    1.8520  -43.8210 C   0  0  0  0  0  0  0  0  0  0  0  0
  -34.8667    6.8450  -41.4344 X   0  0  0  0  0  0  0  0  0  0  0  0
  1  2  1  0  0  0  0
  2  3  1  0  0  0  0
  2  7  1  0  0  0  0
  3  4  1  0  0  0  0
  4  5  1  0  0  0  0
  5  6  1  0  0  0  0
  5 14  1  0  0  0  0
  6  7  1  0  0  0  0
  7  8  1  0  0  0  0
  8  9  2  0  0  0  0
  8 13  1  0  0  0  0
  9 10  1  0  0  0  0
 10 11  2  0  0  0  0
 11 12  1  0  0  0  0
 12 13  2  0  0  0  0
M  END
> <Index>
13275

> <PropertyFieldDistance>
nan

$$$$
12059214
BBcorina  12272117083D 1   1.00000     0.00000 
CORINA 4.3.0 0026  30.10.2019
 10 11  0  0  0  0  0  0  0  0999 V2000
  -37.3156    1.5172  -44.7080 O   0  0  0  0  0  0  0  0  0  0  0  0
  -36.3210    1.7211  -43.7023 C   0  0  0  0  0  0  0  0  0  0  0  0
  -36.8338    2.4947  -42.4741 C   0  0  0  0  0  0  0  0  0  0  0  0
  -36.4132    3.7845  -43.2020 C   0  0  0  0  0  0  0  0  0  0  0  0
  -35.7814    4.7780  -42.3236 N   0  0  0  0  0  0  0  0  0  0  0  0
  -35.4129    2.9214  -43.9717 C   0  0  0  0  0  0  0  0  0  0  0  0
  -33.9327    2.8947  -43.5889 C   0  0  0  0  0  0  0  0  0  0  0  0
  -33.6998    3.8574  -44.7674 C   0  0  0  0  0  0  0  0  0  0  0  0
  -34.9845    3.2854  -45.3938 C   0  0  0  0  0  0  0  0  0  0  0  0
  -36.9588    5.7241  -41.5219 X   0  0  0  0  0  0  0  0  0  0  0  0
  1  2  1  0  0  0  0
  2  3  1  0  0  0  0
  2  6  1  0  0  0  0
  3  4  1  0  0  0  0
  4  5  1  0  0  0  0
  4  6  1  0  0  0  0
  5 10  1  0  0  0  0
  6  7  1  0  0  0  0
  6  9  1  0  0  0  0
  7  8  1  0  0  0  0
  8  9  1  0  0  0  0
M  END
> <Index>
13289

> <PropertyFieldDistance>
nan

$$$$
14585662
BBcorina  12272117083D 1   1.00000     0.00000 
CORINA 4.3.0 0026  30.10.2019
 13 14  0  0  0  0  0  0  0  0999 V2000
  -36.0048    3.6174  -44.3783 N   0  0  0  0  0  0  0  0  0  0  0  0
  -37.0058    4.4934  -43.7536 C   0  0  0  0  0  0  0  0  0  0  0  0
  -36.5671    4.8278  -42.3260 C   0  0  0  0  0  0  0  0  0  0  0  0
  -35.2501    5.4789  -42.3607 N   0  0  0  0  0  0  0  0  0  0  0  0
  -34.2492    4.6028  -42.9855 C   0  0  0  0  0  0  0  0  0  0  0  0
  -34.6878    4.2684  -44.4131 C   0  0  0  0  0  0  0  0  0  0  0  0
  -34.8514    5.8611  -41.0901 C   0  0  0  0  0  0  0  0  0  0  0  0
  -33.6259    6.5005  -40.8935 C   0  0  0  0  0  0  0  0  0  0  0  0
  -33.2739    6.8621  -39.6079 C   0  0  0  0  0  0  0  0  0  0  0  0
  -34.1063    6.5973  -38.6109 N   0  0  0  0  0  0  0  0  0  0  0  0
  -35.2544    5.9878  -38.8286 C   0  0  0  0  0  0  0  0  0  0  0  0
  -35.6303    5.6252  -40.0382 N   0  0  0  0  0  0  0  0  0  0  0  0
  -36.4968    3.1456  -45.9465 X   0  0  0  0  0  0  0  0  0  0  0  0
  1  2  1  0  0  0  0
  1  6  1  0  0  0  0
  1 13  1  0  0  0  0
  2  3  1  0  0  0  0
  3  4  1  0  0  0  0
  4  5  1  0  0  0  0
  4  7  1  0  0  0  0
  5  6  1  0  0  0  0
  7  8  2  0  0  0  0
  7 12  1  0  0  0  0
  8  9  1  0  0  0  0
  9 10  2  0  0  0  0
 10 11  1  0  0  0  0
 11 12  2  0  0  0  0
M  END
> <Index>
13294

> <PropertyFieldDistance>
nan

$$$$
15705880
BBcorina  12272117083D 1   1.00000     0.00000 
CORINA 4.3.0 0026  30.10.2019
 13 14  0  0  0  0  0  0  0  0999 V2000
  -37.6353    6.2236  -42.4091 N   0  0  0  0  0  0  0  0  0  0  0  0
  -36.6823    5.1072  -42.4685 C   0  0  0  0  0  0  0  0  0  0  0  0
  -36.9759    4.2745  -43.6783 C   0  0  0  0  0  0  0  0  0  0  0  0
  -38.1338    4.0867  -43.9863 O   0  0  0  0  0  0  0  0  0  0  0  0
  -36.0185    3.7300  -44.4317 N   0  0  0  0  0  0  0  0  0  0  0  0
  -34.5995    3.8738  -44.1552 C   0  0  0  0  0  0  0  0  0  0  0  0
  -34.3110    5.0781  -43.3039 C   0  0  0  0  0  0  0  0  0  0  0  0
  -33.0317    5.6133  -43.3209 C   0  0  0  0  0  0  0  0  0  0  0  0
  -32.7271    6.7187  -42.5520 C   0  0  0  0  0  0  0  0  0  0  0  0
  -33.7017    7.2967  -41.7604 C   0  0  0  0  0  0  0  0  0  0  0  0
  -34.9761    6.7654  -41.7427 C   0  0  0  0  0  0  0  0  0  0  0  0
  -35.2825    5.6554  -42.5144 C   0  0  0  0  0  0  0  0  0  0  0  0
  -39.0322    5.7905  -41.5231 X   0  0  0  0  0  0  0  0  0  0  0  0
  1  2  1  0  0  0  0
  1 13  1  0  0  0  0
  2  3  1  0  0  0  0
  2 12  1  0  0  0  0
  3  4  2  0  0  0  0
  3  5  1  0  0  0  0
  5  6  1  0  0  0  0
  6  7  1  0  0  0  0
  7  8  2  0  0  0  0
  7 12  1  0  0  0  0
  8  9  1  0  0  0  0
  9 10  2  0  0  0  0
 10 11  1  0  0  0  0
 11 12  2  0  0  0  0
M  END
> <Index>
13301

> <PropertyFieldDistance>
nan

$$$$
12432596
BBcorina  12272117083D 1   1.00000     0.00000 
CORINA 4.3.0 0026  30.10.2019
 11 12  0  0  0  0  0  0  0  0999 V2000
  -32.5114    3.1646  -45.0214 N   0  0  0  0  0  0  0  0  0  0  0  0
  -33.9170    3.1567  -44.9382 C   0  0  0  0  0  0  0  0  0  0  0  0
  -34.7830    2.2980  -45.6344 C   0  0  0  0  0  0  0  0  0  0  0  0
  -36.0156    2.5914  -45.2985 N   0  0  0  0  0  0  0  0  0  0  0  0
  -35.9806    3.6421  -44.3802 N   0  0  0  0  0  0  0  0  0  0  0  0
  -37.1153    4.3015  -43.7274 C   0  0  0  0  0  0  0  0  0  0  0  0
  -36.6042    5.0750  -42.5072 C   0  0  0  0  0  0  0  0  0  0  0  0
  -35.4207    5.9596  -42.9217 C   0  0  0  0  0  0  0  0  0  0  0  0
  -34.2129    5.0710  -43.2480 C   0  0  0  0  0  0  0  0  0  0  0  0
  -34.6743    3.9740  -44.1749 C   0  0  0  0  0  0  0  0  0  0  0  0
  -31.7093    2.0537  -46.0443 X   0  0  0  0  0  0  0  0  0  0  0  0
  1  2  1  0  0  0  0
  1 11  1  0  0  0  0
  2  3  1  0  0  0  0
  2 10  2  0  0  0  0
  3  4  2  0  0  0  0
  4  5  1  0  0  0  0
  5  6  1  0  0  0  0
  5 10  1  0  0  0  0
  6  7  1  0  0  0  0
  7  8  1  0  0  0  0
  8  9  1  0  0  0  0
  9 10  1  0  0  0  0
M  END
> <Index>
13337

> <PropertyFieldDistance>
nan

$$$$
10466078
BBcorina  12272117083D 1   1.00000     0.00000 
CORINA 4.3.0 0026  30.10.2019
 10 10  0  0  0  0  0  0  0  0999 V2000
  -32.5076    2.9485  -44.8340 C   0  0  0  0  0  0  0  0  0  0  0  0
  -33.2237    3.4419  -43.5752 C   0  0  0  0  0  0  0  0  0  0  0  0
  -34.6591    2.9124  -43.5643 C   0  0  0  0  0  0  0  0  0  0  0  0
  -35.3361    3.3007  -42.2483 C   0  0  0  0  0  0  0  0  0  0  0  0
  -36.7715    2.7712  -42.2375 C   0  0  0  0  0  0  0  0  0  0  0  0
  -37.5475    3.3772  -43.4085 C   0  0  0  0  0  0  0  0  0  0  0  0
  -36.8706    2.9888  -44.7245 C   0  0  0  0  0  0  0  0  0  0  0  0
  -35.4352    3.5184  -44.7354 C   0  0  0  0  0  0  0  0  0  0  0  0
  -38.9257    2.8687  -43.3981 N   0  0  0  0  0  0  0  0  0  0  0  0
  -40.0078    4.0176  -44.0563 X   0  0  0  0  0  0  0  0  0  0  0  0
  1  2  1  0  0  0  0
  2  3  1  0  0  0  0
  3  4  1  0  0  0  0
  3  8  1  0  0  0  0
  4  5  1  0  0  0  0
  5  6  1  0  0  0  0
  6  7  1  0  0  0  0
  6  9  1  0  0  0  0
  7  8  1  0  0  0  0
  9 10  1  0  0  0  0
M  END
> <Index>
13338

> <PropertyFieldDistance>
nan

$$$$
11349996
BBcorina  12272117083D 1   1.00000     0.00000 
CORINA 4.3.0 0026  30.10.2019
 12 12  0  0  0  0  0  0  0  0999 V2000
  -35.0898    0.7880  -44.5300 O   0  0  0  0  0  0  0  0  0  0  0  0
  -35.5846    1.5785  -45.6127 C   0  0  0  0  0  0  0  0  0  0  0  0
  -36.1783    0.6615  -46.6840 C   0  0  0  0  0  0  0  0  0  0  0  0
  -35.1385   -0.2507  -47.1787 N   0  0  0  0  0  0  0  0  0  0  0  0
  -36.6675    2.5286  -45.0975 C   0  0  0  0  0  0  0  0  0  0  0  0
  -36.1051    3.3891  -44.0481 N   0  0  0  0  0  0  0  0  0  0  0  0
  -37.0920    4.3760  -43.5918 C   0  0  0  0  0  0  0  0  0  0  0  0
  -36.5239    5.1557  -42.4037 C   0  0  0  0  0  0  0  0  0  0  0  0
  -35.2320    5.8579  -42.8310 C   0  0  0  0  0  0  0  0  0  0  0  0
  -34.2390    4.8129  -43.3472 C   0  0  0  0  0  0  0  0  0  0  0  0
  -34.8734    4.0432  -44.5079 C   0  0  0  0  0  0  0  0  0  0  0  0
  -35.7613   -1.2956  -48.3806 X   0  0  0  0  0  0  0  0  0  0  0  0
  1  2  1  0  0  0  0
  2  3  1  0  0  0  0
  2  5  1  0  0  0  0
  3  4  1  0  0  0  0
  4 12  1  0  0  0  0
  5  6  1  0  0  0  0
  6  7  1  0  0  0  0
  6 11  1  0  0  0  0
  7  8  1  0  0  0  0
  8  9  1  0  0  0  0
  9 10  1  0  0  0  0
 10 11  1  0  0  0  0
M  END
> <Index>
13349

> <PropertyFieldDistance>
nan

$$$$
15423542
BBcorina  12272117083D 1   1.00000     0.00000 
CORINA 4.3.0 0026  30.10.2019
 11 11  0  0  0  0  0  0  0  0999 V2000
  -34.3734    6.2191  -44.0819 O   0  0  0  0  0  0  0  0  0  0  0  0
  -34.2772    5.0495  -43.2665 C   0  0  0  0  0  0  0  0  0  0  0  0
  -35.2460    5.1676  -42.0869 C   0  0  0  0  0  0  0  0  0  0  0  0
  -36.6792    5.2476  -42.6202 C   0  0  0  0  0  0  0  0  0  0  0  0
  -36.9723    4.0087  -43.4694 C   0  0  0  0  0  0  0  0  0  0  0  0
  -36.0191    3.9414  -44.5846 N   0  0  0  0  0  0  0  0  0  0  0  0
  -34.6395    3.8164  -44.0970 C   0  0  0  0  0  0  0  0  0  0  0  0
  -32.8473    4.9089  -42.7404 C   0  0  0  0  0  0  0  0  0  0  0  0
  -31.9627    4.7968  -43.8183 F   0  0  0  0  0  0  0  0  0  0  0  0
  -32.5167    6.0365  -41.9812 F   0  0  0  0  0  0  0  0  0  0  0  0
  -36.4111    2.6621  -45.6494 X   0  0  0  0  0  0  0  0  0  0  0  0
  1  2  1  0  0  0  0
  2  3  1  0  0  0  0
  2  7  1  0  0  0  0
  2  8  1  0  0  0  0
  3  4  1  0  0  0  0
  4  5  1  0  0  0  0
  5  6  1  0  0  0  0
  6  7  1  0  0  0  0
  6 11  1  0  0  0  0
  8  9  1  0  0  0  0
  8 10  1  0  0  0  0
M  END
> <Index>
13350

> <PropertyFieldDistance>
nan

$$$$
15065876
BBcorina  12272117083D 1   1.00000     0.00000 
CORINA 4.3.0 0026  30.10.2019
 14 15  0  0  0  0  0  0  0  0999 V2000
  -37.6002    0.0985  -48.0505 F   0  0  0  0  0  0  0  0  0  0  0  0
  -37.1742    0.8797  -47.0338 C   0  0  0  0  0  0  0  0  0  0  0  0
  -35.9079    0.6857  -46.5069 C   0  0  0  0  0  0  0  0  0  0  0  0
  -35.4811    1.4863  -45.4608 C   0  0  0  0  0  0  0  0  0  0  0  0
  -36.3452    2.4696  -44.9843 C   0  0  0  0  0  0  0  0  0  0  0  0
  -37.5992    2.6043  -45.5639 C   0  0  0  0  0  0  0  0  0  0  0  0
  -37.9705    1.8178  -46.5553 N   0  0  0  0  0  0  0  0  0  0  0  0
  -35.9565    3.3059  -43.9328 N   0  0  0  0  0  0  0  0  0  0  0  0
  -37.0240    4.2577  -43.5947 C   0  0  0  0  0  0  0  0  0  0  0  0
  -36.5916    5.0989  -42.3915 C   0  0  0  0  0  0  0  0  0  0  0  0
  -35.3434    5.8044  -42.7135 N   0  0  0  0  0  0  0  0  0  0  0  0
  -34.2759    4.8526  -43.0514 C   0  0  0  0  0  0  0  0  0  0  0  0
  -34.7083    4.0114  -44.2547 C   0  0  0  0  0  0  0  0  0  0  0  0
  -34.8682    6.8270  -41.4279 X   0  0  0  0  0  0  0  0  0  0  0  0
  1  2  1  0  0  0  0
  2  3  2  0  0  0  0
  2  7  1  0  0  0  0
  3  4  1  0  0  0  0
  4  5  2  0  0  0  0
  5  6  1  0  0  0  0
  5  8  1  0  0  0  0
  6  7  2  0  0  0  0
  8  9  1  0  0  0  0
  8 13  1  0  0  0  0
  9 10  1  0  0  0  0
 10 11  1  0  0  0  0
 11 12  1  0  0  0  0
 11 14  1  0  0  0  0
 12 13  1  0  0  0  0
M  END
> <Index>
13357

> <PropertyFieldDistance>
nan

$$$$
10863460
BBcorina  12272117083D 1   1.00000     0.00000 
CORINA 4.3.0 0026  30.10.2019
 11 12  0  0  0  0  0  0  0  0999 V2000
  -38.9664    2.5975  -46.0111 N   0  0  0  0  0  0  0  0  0  0  0  0
  -37.9499    3.1528  -45.2316 C   0  0  0  0  0  0  0  0  0  0  0  0
  -38.1290    3.9303  -44.1567 N   0  0  0  0  0  0  0  0  0  0  0  0
  -36.9710    4.2747  -43.6660 C   0  0  0  0  0  0  0  0  0  0  0  0
  -36.6982    5.1412  -42.4604 C   0  0  0  0  0  0  0  0  0  0  0  0
  -35.2360    4.9360  -42.0435 C   0  0  0  0  0  0  0  0  0  0  0  0
  -34.3367    5.0640  -43.2766 C   0  0  0  0  0  0  0  0  0  0  0  0
  -34.5716    3.8685  -44.2070 C   0  0  0  0  0  0  0  0  0  0  0  0
  -36.0099    3.7152  -44.4277 N   0  0  0  0  0  0  0  0  0  0  0  0
  -36.6602    2.9971  -45.4327 N   0  0  0  0  0  0  0  0  0  0  0  0
  -40.6040    2.8937  -45.6179 X   0  0  0  0  0  0  0  0  0  0  0  0
  1  2  1  0  0  0  0
  1 11  1  0  0  0  0
  2  3  1  0  0  0  0
  2 10  2  0  0  0  0
  3  4  2  0  0  0  0
  4  5  1  0  0  0  0
  4  9  1  0  0  0  0
  5  6  1  0  0  0  0
  6  7  1  0  0  0  0
  7  8  1  0  0  0  0
  8  9  1  0  0  0  0
  9 10  1  0  0  0  0
M  END
> <Index>
13362

> <PropertyFieldDistance>
nan

$$$$
10964012
BBcorina  12272117083D 1   1.00000     0.00000 
CORINA 4.3.0 0026  30.10.2019
 11 12  0  0  0  0  0  0  0  0999 V2000
  -35.9554    3.4606  -44.1930 N   0  0  0  0  0  0  0  0  0  0  0  0
  -37.0250    4.3874  -43.7948 C   0  0  0  0  0  0  0  0  0  0  0  0
  -36.6101    5.1169  -42.5144 C   0  0  0  0  0  0  0  0  0  0  0  0
  -35.3668    5.7881  -42.7357 O   0  0  0  0  0  0  0  0  0  0  0  0
  -34.3026    4.9153  -43.1244 C   0  0  0  0  0  0  0  0  0  0  0  0
  -34.6941    4.1835  -44.4110 C   0  0  0  0  0  0  0  0  0  0  0  0
  -33.0328    5.7333  -43.3681 C   0  0  0  0  0  0  0  0  0  0  0  0
  -32.5338    6.4823  -42.1212 C   0  0  0  0  0  0  0  0  0  0  0  0
  -31.1099    6.0990  -42.5574 C   0  0  0  0  0  0  0  0  0  0  0  0
  -31.7409    4.9026  -43.2926 C   0  0  0  0  0  0  0  0  0  0  0  0
  -36.4010    2.5722  -45.5846 X   0  0  0  0  0  0  0  0  0  0  0  0
  1  2  1  0  0  0  0
  1  6  1  0  0  0  0
  1 11  1  0  0  0  0
  2  3  1  0  0  0  0
  3  4  1  0  0  0  0
  4  5  1  0  0  0  0
  5  6  1  0  0  0  0
  5  7  1  0  0  0  0
  7  8  1  0  0  0  0
  7 10  1  0  0  0  0
  8  9  1  0  0  0  0
  9 10  1  0  0  0  0
M  END
> <Index>
13378

> <PropertyFieldDistance>
nan

$$$$
11403238
BBcorina  12272117083D 1   1.00000     0.00000 
CORINA 4.3.0 0026  30.10.2019
 11 12  0  0  0  0  0  0  0  0999 V2000
  -36.3165    2.1196  -44.5736 C   0  0  0  0  0  0  0  0  0  0  0  0
  -35.9797    3.5478  -44.6429 N   0  0  0  0  0  0  0  0  0  0  0  0
  -37.1078    4.3852  -44.1583 C   0  0  0  0  0  0  0  0  0  0  0  0
  -36.5718    5.1512  -42.9545 C   0  0  0  0  0  0  0  0  0  0  0  0
  -37.0777    6.5659  -42.7572 C   0  0  0  0  0  0  0  0  0  0  0  0
  -36.3205    7.1435  -41.5477 C   0  0  0  0  0  0  0  0  0  0  0  0
  -34.8101    7.0468  -41.7384 C   0  0  0  0  0  0  0  0  0  0  0  0
  -34.3830    5.6727  -42.0731 N   0  0  0  0  0  0  0  0  0  0  0  0
  -35.0573    5.2660  -43.2940 C   0  0  0  0  0  0  0  0  0  0  0  0
  -34.7795    3.8543  -43.8139 C   0  0  0  0  0  0  0  0  0  0  0  0
  -32.6847    5.5855  -42.2526 X   0  0  0  0  0  0  0  0  0  0  0  0
  1  2  1  0  0  0  0
  2  3  1  0  0  0  0
  2 10  1  0  0  0  0
  3  4  1  0  0  0  0
  4  5  1  0  0  0  0
  4  9  1  0  0  0  0
  5  6  1  0  0  0  0
  6  7  1  0  0  0  0
  7  8  1  0  0  0  0
  8  9  1  0  0  0  0
  8 11  1  0  0  0  0
  9 10  1  0  0  0  0
M  END
> <Index>
13379

> <PropertyFieldDistance>
nan

$$$$
13945640
BBcorina  12272117083D 1   1.00000     0.00000 
CORINA 4.3.0 0026  30.10.2019
 11 11  0  0  0  0  0  0  0  0999 V2000
  -38.2533    6.7511  -41.0416 C   0  0  0  0  0  0  0  0  0  0  0  0
  -38.2815    5.9866  -42.3667 C   0  0  0  0  0  0  0  0  0  0  0  0
  -37.0096    5.1464  -42.4978 C   0  0  0  0  0  0  0  0  0  0  0  0
  -37.1009    4.3307  -43.7069 C   0  0  0  0  0  0  0  0  0  0  0  0
  -35.9165    3.4596  -43.8848 N   0  0  0  0  0  0  0  0  0  0  0  0
  -36.2385    2.2982  -44.7247 C   0  0  0  0  0  0  0  0  0  0  0  0
  -34.8264    4.2185  -44.4478 C   0  0  0  0  0  0  0  0  0  0  0  0
  -33.8828    4.7843  -43.3712 C   0  0  0  0  0  0  0  0  0  0  0  0
  -34.6094    5.3236  -42.1976 N   0  0  0  0  0  0  0  0  0  0  0  0
  -35.7875    6.0871  -42.5291 C   0  0  0  0  0  0  0  0  0  0  0  0
  -33.5614    6.2215  -41.1876 X   0  0  0  0  0  0  0  0  0  0  0  0
  1  2  1  0  0  0  0
  2  3  1  0  0  0  0
  3  4  1  0  0  0  0
  3 10  1  0  0  0  0
  4  5  1  0  0  0  0
  5  6  1  0  0  0  0
  5  7  1  0  0  0  0
  7  8  1  0  0  0  0
  8  9  1  0  0  0  0
  9 10  1  0  0  0  0
  9 11  1  0  0  0  0
M  END
> <Index>
13380

> <PropertyFieldDistance>
nan

$$$$
17651224
BBcorina  12272117083D 1   1.00000     0.00000 
CORINA 4.3.0 0026  30.10.2019
 12 13  0  0  0  0  0  0  0  0999 V2000
  -36.5560    2.6424  -44.8962 C   0  0  0  0  0  0  0  0  0  0  0  0
  -35.7574    3.2668  -43.8332 N   0  0  0  0  0  0  0  0  0  0  0  0
  -36.6328    3.8931  -42.8069 C   0  0  0  0  0  0  0  0  0  0  0  0
  -37.1006    5.2135  -43.4612 C   0  0  0  0  0  0  0  0  0  0  0  0
  -36.0016    5.5566  -44.4883 C   0  0  0  0  0  0  0  0  0  0  0  0
  -34.9697    4.4123  -44.3614 C   0  0  0  0  0  0  0  0  0  0  0  0
  -33.9583    4.8097  -43.2742 C   0  0  0  0  0  0  0  0  0  0  0  0
  -34.7228    5.3081  -42.0445 C   0  0  0  0  0  0  0  0  0  0  0  0
  -35.4534    6.6069  -42.3914 C   0  0  0  0  0  0  0  0  0  0  0  0
  -36.1828    7.0887  -41.2108 N   0  0  0  0  0  0  0  0  0  0  0  0
  -35.7424    4.2527  -41.6067 C   0  0  0  0  0  0  0  0  0  0  0  0
  -37.0153    8.5420  -41.5559 X   0  0  0  0  0  0  0  0  0  0  0  0
  1  2  1  0  0  0  0
  2  3  1  0  0  0  0
  2  6  1  0  0  0  0
  3  4  1  0  0  0  0
  3 11  1  0  0  0  0
  4  5  1  0  0  0  0
  5  6  1  0  0  0  0
  6  7  1  0  0  0  0
  7  8  1  0  0  0  0
  8  9  1  0  0  0  0
  8 11  1  0  0  0  0
  9 10  1  0  0  0  0
 10 12  1  0  0  0  0
M  END
> <Index>
13382

> <PropertyFieldDistance>
nan

$$$$
13602550
BBcorina  12272117083D 1   1.00000     0.00000 
CORINA 4.3.0 0026  30.10.2019
 13 14  0  0  0  0  0  0  0  0999 V2000
  -35.9480    3.4664  -44.1723 N   0  0  0  0  0  0  0  0  0  0  0  0
  -37.0290    4.3869  -43.7977 C   0  0  0  0  0  0  0  0  0  0  0  0
  -36.6587    5.1099  -42.5007 C   0  0  0  0  0  0  0  0  0  0  0  0
  -35.3534    5.8832  -42.7081 C   0  0  0  0  0  0  0  0  0  0  0  0
  -34.2558    4.9088  -43.1443 C   0  0  0  0  0  0  0  0  0  0  0  0
  -34.6958    4.1916  -44.4226 C   0  0  0  0  0  0  0  0  0  0  0  0
  -34.9458    6.5588  -41.3972 C   0  0  0  0  0  0  0  0  0  0  0  0
  -33.7057    7.4261  -41.6324 C   0  0  0  0  0  0  0  0  0  0  0  0
  -33.2655    7.9646  -40.3821 O   0  0  0  0  0  0  0  0  0  0  0  0
  -32.9611    6.9659  -39.4039 C   0  0  0  0  0  0  0  0  0  0  0  0
  -34.2012    6.0987  -39.1686 C   0  0  0  0  0  0  0  0  0  0  0  0
  -34.6415    5.5602  -40.4189 O   0  0  0  0  0  0  0  0  0  0  0  0
  -36.3899    2.5210  -45.5269 X   0  0  0  0  0  0  0  0  0  0  0  0
  1  2  1  0  0  0  0
  1  6  1  0  0  0  0
  1 13  1  0  0  0  0
  2  3  1  0  0  0  0
  3  4  1  0  0  0  0
  4  5  1  0  0  0  0
  4  7  1  0  0  0  0
  5  6  1  0  0  0  0
  7  8  1  0  0  0  0
  7 12  1  0  0  0  0
  8  9  1  0  0  0  0
  9 10  1  0  0  0  0
 10 11  1  0  0  0  0
 11 12  1  0  0  0  0
M  END
> <Index>
13392

> <PropertyFieldDistance>
nan

$$$$
13160886
BBcorina  12272117083D 1   1.00000     0.00000 
CORINA 4.3.0 0026  30.10.2019
  8  8  0  0  0  0  0  0  0  0999 V2000
  -36.3858    2.2962  -44.6585 C   0  0  0  0  0  0  0  0  0  0  0  0
  -36.0041    3.6193  -44.1470 N   0  0  0  0  0  0  0  0  0  0  0  0
  -37.2002    4.4371  -43.8473 C   0  0  0  0  0  0  0  0  0  0  0  0
  -36.4610    4.8632  -42.5661 C   0  0  0  0  0  0  0  0  0  0  0  0
  -35.6640    3.5539  -42.7086 C   0  0  0  0  0  0  0  0  0  0  0  0
  -34.1691    3.7078  -42.4210 C   0  0  0  0  0  0  0  0  0  0  0  0
  -33.4838    2.4386  -42.6992 N   0  0  0  0  0  0  0  0  0  0  0  0
  -31.8069    2.5671  -42.3901 X   0  0  0  0  0  0  0  0  0  0  0  0
  1  2  1  0  0  0  0
  2  3  1  0  0  0  0
  2  5  1  0  0  0  0
  3  4  1  0  0  0  0
  4  5  1  0  0  0  0
  5  6  1  0  0  0  0
  6  7  1  0  0  0  0
  7  8  1  0  0  0  0
M  END
> <Index>
13393

> <PropertyFieldDistance>
nan

$$$$
13572030
BBcorina  12272117083D 1   1.00000     0.00000 
CORINA 4.3.0 0026  30.10.2019
 11 11  0  0  0  0  0  0  0  0999 V2000
  -36.3320    2.1986  -44.8865 C   0  0  0  0  0  0  0  0  0  0  0  0
  -36.0737    3.4556  -44.1797 N   0  0  0  0  0  0  0  0  0  0  0  0
  -37.0860    4.4063  -43.6959 C   0  0  0  0  0  0  0  0  0  0  0  0
  -38.3602    3.6451  -43.3247 C   0  0  0  0  0  0  0  0  0  0  0  0
  -39.4095    4.6014  -42.9476 N   0  0  0  0  0  0  0  0  0  0  0  0
  -36.5595    5.1555  -42.4568 C   0  0  0  0  0  0  0  0  0  0  0  0
  -35.1064    5.5588  -42.8404 C   0  0  0  0  0  0  0  0  0  0  0  0
  -34.5753    4.0729  -43.7761 S   0  0  0  0  0  0  0  0  0  0  0  0
  -33.9759    4.4308  -45.0138 O   0  0  0  0  0  0  0  0  0  0  0  0
  -33.9940    3.1030  -42.9155 O   0  0  0  0  0  0  0  0  0  0  0  0
  -40.7968    3.7901  -42.3633 X   0  0  0  0  0  0  0  0  0  0  0  0
  1  2  1  0  0  0  0
  2  3  1  0  0  0  0
  2  8  1  0  0  0  0
  3  4  1  0  0  0  0
  3  6  1  0  0  0  0
  4  5  1  0  0  0  0
  5 11  1  0  0  0  0
  6  7  1  0  0  0  0
  7  8  1  0  0  0  0
  8  9  2  0  0  0  0
  8 10  2  0  0  0  0
M  END
> <Index>
13396

> <PropertyFieldDistance>
nan

$$$$
13772770
BBcorina  12272117083D 1   1.00000     0.00000 
CORINA 4.3.0 0026  30.10.2019
 14 15  0  0  0  0  0  0  0  0999 V2000
  -39.2116    4.0000  -42.5310 N   0  0  0  0  0  0  0  0  0  0  0  0
  -38.1289    3.2984  -43.2334 C   0  0  0  0  0  0  0  0  0  0  0  0
  -37.0979    4.3156  -43.7266 C   0  0  0  0  0  0  0  0  0  0  0  0
  -36.4031    4.9891  -42.5245 C   0  0  0  0  0  0  0  0  0  0  0  0
  -34.9333    5.1257  -43.0018 C   0  0  0  0  0  0  0  0  0  0  0  0
  -34.7523    3.8306  -43.8321 C   0  0  0  0  0  0  0  0  0  0  0  0
  -36.0518    3.6308  -44.5082 N   0  0  0  0  0  0  0  0  0  0  0  0
  -36.3401    2.2712  -44.6470 C   0  0  0  0  0  0  0  0  0  0  0  0
  -36.8308    1.7830  -45.8514 C   0  0  0  0  0  0  0  0  0  0  0  0
  -37.1144    0.4381  -45.9854 C   0  0  0  0  0  0  0  0  0  0  0  0
  -36.9102   -0.4224  -44.9222 C   0  0  0  0  0  0  0  0  0  0  0  0
  -36.4272    0.0611  -43.7201 C   0  0  0  0  0  0  0  0  0  0  0  0
  -36.1361    1.4040  -43.5811 C   0  0  0  0  0  0  0  0  0  0  0  0
  -40.3018    2.8901  -41.8212 X   0  0  0  0  0  0  0  0  0  0  0  0
  1  2  1  0  0  0  0
  1 14  1  0  0  0  0
  2  3  1  0  0  0  0
  3  4  1  0  0  0  0
  3  7  1  0  0  0  0
  4  5  1  0  0  0  0
  5  6  1  0  0  0  0
  6  7  1  0  0  0  0
  7  8  1  0  0  0  0
  8  9  2  0  0  0  0
  8 13  1  0  0  0  0
  9 10  1  0  0  0  0
 10 11  2  0  0  0  0
 11 12  1  0  0  0  0
 12 13  2  0  0  0  0
M  END
> <Index>
13401

> <PropertyFieldDistance>
nan

$$$$
13811594
BBcorina  12272117083D 1   1.00000     0.00000 
CORINA 4.3.0 0026  30.10.2019
 14 15  0  0  0  0  0  0  0  0999 V2000
  -39.2116    4.0000  -42.5310 N   0  0  0  0  0  0  0  0  0  0  0  0
  -38.1289    3.2984  -43.2334 C   0  0  0  0  0  0  0  0  0  0  0  0
  -37.0979    4.3156  -43.7266 C   0  0  0  0  0  0  0  0  0  0  0  0
  -36.4031    4.9891  -42.5245 C   0  0  0  0  0  0  0  0  0  0  0  0
  -34.9333    5.1257  -43.0018 C   0  0  0  0  0  0  0  0  0  0  0  0
  -34.7523    3.8306  -43.8321 C   0  0  0  0  0  0  0  0  0  0  0  0
  -36.0518    3.6308  -44.5082 N   0  0  0  0  0  0  0  0  0  0  0  0
  -36.3401    2.2712  -44.6470 C   0  0  0  0  0  0  0  0  0  0  0  0
  -36.8308    1.7830  -45.8514 C   0  0  0  0  0  0  0  0  0  0  0  0
  -37.1144    0.4381  -45.9854 C   0  0  0  0  0  0  0  0  0  0  0  0
  -36.9102   -0.4224  -44.9222 C   0  0  0  0  0  0  0  0  0  0  0  0
  -36.4272    0.0611  -43.7201 C   0  0  0  0  0  0  0  0  0  0  0  0
  -36.1361    1.4040  -43.5811 C   0  0  0  0  0  0  0  0  0  0  0  0
  -40.3018    2.8901  -41.8212 X   0  0  0  0  0  0  0  0  0  0  0  0
  1  2  1  0  0  0  0
  1 14  1  0  0  0  0
  2  3  1  0  0  0  0
  3  4  1  0  0  0  0
  3  7  1  0  0  0  0
  4  5  1  0  0  0  0
  5  6  1  0  0  0  0
  6  7  1  0  0  0  0
  7  8  1  0  0  0  0
  8  9  2  0  0  0  0
  8 13  1  0  0  0  0
  9 10  1  0  0  0  0
 10 11  2  0  0  0  0
 11 12  1  0  0  0  0
 12 13  2  0  0  0  0
M  END
> <Index>
13403

> <PropertyFieldDistance>
nan

$$$$
17650390
BBcorina  12272117083D 1   1.00000     0.00000 
CORINA 4.3.0 0026  30.10.2019
 10 10  0  0  0  0  0  0  0  0999 V2000
  -39.4086    1.3007  -44.0398 N   0  0  0  0  0  0  0  0  0  0  0  0
  -38.5974    2.4434  -44.4805 C   0  0  0  0  0  0  0  0  0  0  0  0
  -37.9185    3.0843  -43.2683 C   0  0  0  0  0  0  0  0  0  0  0  0
  -37.0736    4.2745  -43.7271 C   0  0  0  0  0  0  0  0  0  0  0  0
  -36.4294    4.9757  -42.5107 C   0  0  0  0  0  0  0  0  0  0  0  0
  -35.0503    4.2801  -42.4396 C   0  0  0  0  0  0  0  0  0  0  0  0
  -34.8035    3.8004  -43.8530 C   0  0  0  0  0  0  0  0  0  0  0  0
  -33.7267    3.4546  -44.2911 O   0  0  0  0  0  0  0  0  0  0  0  0
  -35.9513    3.8125  -44.5523 N   0  0  0  0  0  0  0  0  0  0  0  0
  -40.1867    0.5537  -45.3668 X   0  0  0  0  0  0  0  0  0  0  0  0
  1  2  1  0  0  0  0
  1 10  1  0  0  0  0
  2  3  1  0  0  0  0
  3  4  1  0  0  0  0
  4  5  1  0  0  0  0
  4  9  1  0  0  0  0
  5  6  1  0  0  0  0
  6  7  1  0  0  0  0
  7  8  2  0  0  0  0
  7  9  1  0  0  0  0
M  END
> <Index>
13405

> <PropertyFieldDistance>
nan

$$$$
10543110
BBcorina  12272117083D 1   1.00000     0.00000 
CORINA 4.3.0 0026  30.10.2019
 10 10  0  0  0  0  0  0  0  0999 V2000
  -37.7026    5.5008  -44.5776 C   0  0  0  0  0  0  0  0  0  0  0  0
  -37.0796    4.3646  -43.7642 C   0  0  0  0  0  0  0  0  0  0  0  0
  -36.4196    4.9319  -42.4898 C   0  0  0  0  0  0  0  0  0  0  0  0
  -35.1315    4.0731  -42.3544 C   0  0  0  0  0  0  0  0  0  0  0  0
  -34.7368    3.8612  -43.8373 C   0  0  0  0  0  0  0  0  0  0  0  0
  -36.0217    3.7054  -44.5517 N   0  0  0  0  0  0  0  0  0  0  0  0
  -37.2956    4.7476  -41.3250 N   0  0  0  0  0  0  0  0  0  0  0  0
  -36.6734    5.2856  -40.1080 C   0  0  0  0  0  0  0  0  0  0  0  0
  -38.6129    5.3554  -41.5556 C   0  0  0  0  0  0  0  0  0  0  0  0
  -35.9306    4.3633  -46.1273 X   0  0  0  0  0  0  0  0  0  0  0  0
  1  2  1  0  0  0  0
  2  3  1  0  0  0  0
  2  6  1  0  0  0  0
  3  4  1  0  0  0  0
  3  7  1  0  0  0  0
  4  5  1  0  0  0  0
  5  6  1  0  0  0  0
  6 10  1  0  0  0  0
  7  8  1  0  0  0  0
  7  9  1  0  0  0  0
M  END
> <Index>
13420

> <PropertyFieldDistance>
nan

$$$$
11984858
BBcorina  12272117083D 1   1.00000     0.00000 
CORINA 4.3.0 0026  30.10.2019
 12 13  0  0  0  0  0  0  0  0999 V2000
  -36.0087    3.6126  -44.3879 N   0  0  0  0  0  0  0  0  0  0  0  0
  -37.0096    4.4890  -43.7635 C   0  0  0  0  0  0  0  0  0  0  0  0
  -36.5702    4.8249  -42.3364 C   0  0  0  0  0  0  0  0  0  0  0  0
  -35.2534    5.4763  -42.3725 N   0  0  0  0  0  0  0  0  0  0  0  0
  -34.2525    4.6000  -42.9970 C   0  0  0  0  0  0  0  0  0  0  0  0
  -34.6919    4.2640  -44.4241 C   0  0  0  0  0  0  0  0  0  0  0  0
  -34.8300    5.8830  -41.0259 C   0  0  0  0  0  0  0  0  0  0  0  0
  -33.3870    6.4566  -41.0499 C   0  0  0  0  0  0  0  0  0  0  0  0
  -33.4342    7.4222  -39.8391 C   0  0  0  0  0  0  0  0  0  0  0  0
  -34.7580    7.9796  -39.8552 O   0  0  0  0  0  0  0  0  0  0  0  0
  -35.6546    7.0912  -40.5323 C   0  0  0  0  0  0  0  0  0  0  0  0
  -36.5015    3.1392  -45.9554 X   0  0  0  0  0  0  0  0  0  0  0  0
  1  2  1  0  0  0  0
  1  6  1  0  0  0  0
  1 12  1  0  0  0  0
  2  3  1  0  0  0  0
  3  4  1  0  0  0  0
  4  5  1  0  0  0  0
  4  7  1  0  0  0  0
  5  6  1  0  0  0  0
  7  8  1  0  0  0  0
  7 11  1  0  0  0  0
  8  9  1  0  0  0  0
  9 10  1  0  0  0  0
 10 11  1  0  0  0  0
M  END
> <Index>
13458

> <PropertyFieldDistance>
nan

$$$$
14417150
BBcorina  12272117083D 1   1.00000     0.00000 
CORINA 4.3.0 0026  30.10.2019
 10 10  0  0  0  0  0  0  0  0999 V2000
  -35.5739    8.2993  -39.7180 C   0  0  0  0  0  0  0  0  0  0  0  0
  -35.9822    7.6224  -41.0280 C   0  0  0  0  0  0  0  0  0  0  0  0
  -34.9453    6.5600  -41.3980 C   0  0  0  0  0  0  0  0  0  0  0  0
  -35.3535    5.8833  -42.7079 C   0  0  0  0  0  0  0  0  0  0  0  0
  -36.6585    5.1099  -42.5008 C   0  0  0  0  0  0  0  0  0  0  0  0
  -37.0291    4.3869  -43.7977 C   0  0  0  0  0  0  0  0  0  0  0  0
  -35.9480    3.4664  -44.1723 N   0  0  0  0  0  0  0  0  0  0  0  0
  -34.6958    4.1916  -44.4226 C   0  0  0  0  0  0  0  0  0  0  0  0
  -34.2559    4.9088  -43.1442 C   0  0  0  0  0  0  0  0  0  0  0  0
  -36.3899    2.5211  -45.5270 X   0  0  0  0  0  0  0  0  0  0  0  0
  1  2  1  0  0  0  0
  2  3  1  0  0  0  0
  3  4  1  0  0  0  0
  4  5  1  0  0  0  0
  4  9  1  0  0  0  0
  5  6  1  0  0  0  0
  6  7  1  0  0  0  0
  7  8  1  0  0  0  0
  7 10  1  0  0  0  0
  8  9  1  0  0  0  0
M  END
> <Index>
13461

> <PropertyFieldDistance>
nan

$$$$
6286246
BBcorina  12272117083D 1   1.00000     0.00000 
CORINA 4.3.0 0026  30.10.2019
 14 15  0  0  0  0  0  0  0  0999 V2000
  -35.7987   -1.5858  -46.5161 C   0  0  0  0  0  0  0  0  0  0  0  0
  -35.5001   -0.2631  -47.2248 C   0  0  0  0  0  0  0  0  0  0  0  0
  -36.2151    0.8587  -46.5167 C   0  0  0  0  0  0  0  0  0  0  0  0
  -37.4218    1.2068  -46.8576 N   0  0  0  0  0  0  0  0  0  0  0  0
  -37.8426    2.4877  -45.8229 S   0  0  0  0  0  0  0  0  0  0  0  0
  -36.3417    2.4793  -44.9765 C   0  0  0  0  0  0  0  0  0  0  0  0
  -35.6407    1.5158  -45.5358 N   0  0  0  0  0  0  0  0  0  0  0  0
  -35.9574    3.3051  -43.9356 N   0  0  0  0  0  0  0  0  0  0  0  0
  -37.0246    4.2568  -43.5967 C   0  0  0  0  0  0  0  0  0  0  0  0
  -36.5923    5.0965  -42.3923 C   0  0  0  0  0  0  0  0  0  0  0  0
  -35.3437    5.8020  -42.7132 N   0  0  0  0  0  0  0  0  0  0  0  0
  -34.2765    4.8503  -43.0521 C   0  0  0  0  0  0  0  0  0  0  0  0
  -34.7088    4.0106  -44.2564 C   0  0  0  0  0  0  0  0  0  0  0  0
  -34.8686    6.8229  -41.4263 X   0  0  0  0  0  0  0  0  0  0  0  0
  1  2  1  0  0  0  0
  2  3  1  0  0  0  0
  3  4  2  0  0  0  0
  3  7  1  0  0  0  0
  4  5  1  0  0  0  0
  5  6  1  0  0  0  0
  6  7  2  0  0  0  0
  6  8  1  0  0  0  0
  8  9  1  0  0  0  0
  8 13  1  0  0  0  0
  9 10  1  0  0  0  0
 10 11  1  0  0  0  0
 11 12  1  0  0  0  0
 11 14  1  0  0  0  0
 12 13  1  0  0  0  0
M  END
> <Index>
13464

> <PropertyFieldDistance>
nan

$$$$
14785894
BBcorina  12272117083D 1   1.00000     0.00000 
CORINA 4.3.0 0026  30.10.2019
 13 14  0  0  0  0  0  0  0  0999 V2000
  -36.1519    2.3855  -43.9273 C   0  0  0  0  0  0  0  0  0  0  0  0
  -36.0638    3.6955  -44.5859 N   0  0  0  0  0  0  0  0  0  0  0  0
  -36.9905    4.6582  -43.9708 C   0  0  0  0  0  0  0  0  0  0  0  0
  -36.7514    4.6641  -42.4607 C   0  0  0  0  0  0  0  0  0  0  0  0
  -35.2818    4.8369  -42.1731 C   0  0  0  0  0  0  0  0  0  0  0  0
  -34.8997    5.2180  -40.8953 C   0  0  0  0  0  0  0  0  0  0  0  0
  -33.5659    5.3794  -40.5832 C   0  0  0  0  0  0  0  0  0  0  0  0
  -32.5990    5.1599  -41.5561 C   0  0  0  0  0  0  0  0  0  0  0  0
  -31.2459    5.3188  -41.2486 N   0  0  0  0  0  0  0  0  0  0  0  0
  -32.9834    4.7817  -42.8343 C   0  0  0  0  0  0  0  0  0  0  0  0
  -34.3247    4.6215  -43.1430 C   0  0  0  0  0  0  0  0  0  0  0  0
  -34.6924    4.2129  -44.5454 C   0  0  0  0  0  0  0  0  0  0  0  0
  -30.0587    5.0471  -42.4490 X   0  0  0  0  0  0  0  0  0  0  0  0
  1  2  1  0  0  0  0
  2  3  1  0  0  0  0
  2 12  1  0  0  0  0
  3  4  1  0  0  0  0
  4  5  1  0  0  0  0
  5  6  2  0  0  0  0
  5 11  1  0  0  0  0
  6  7  1  0  0  0  0
  7  8  2  0  0  0  0
  8  9  1  0  0  0  0
  8 10  1  0  0  0  0
  9 13  1  0  0  0  0
 10 11  2  0  0  0  0
 11 12  1  0  0  0  0
M  END
> <Index>
13465

> <PropertyFieldDistance>
nan

$$$$
9110126
BBcorina  12272117083D 1   1.00000     0.00000 
CORINA 4.3.0 0026  30.10.2019
 15 16  0  0  0  0  0  0  0  0999 V2000
  -37.2904   -1.5942  -46.7492 Cl  0  0  0  0  0  0  0  0  0  0  0  0
  -36.9227   -0.0505  -46.0453 C   0  0  0  0  0  0  0  0  0  0  0  0
  -35.8787    0.7064  -46.5475 C   0  0  0  0  0  0  0  0  0  0  0  0
  -35.5836    1.9347  -45.9891 C   0  0  0  0  0  0  0  0  0  0  0  0
  -36.3358    2.4100  -44.9226 C   0  0  0  0  0  0  0  0  0  0  0  0
  -37.3794    1.6456  -44.4169 C   0  0  0  0  0  0  0  0  0  0  0  0
  -37.6737    0.4206  -44.9828 C   0  0  0  0  0  0  0  0  0  0  0  0
  -36.0395    3.6524  -44.3557 N   0  0  0  0  0  0  0  0  0  0  0  0
  -36.9539    3.9570  -43.2478 C   0  0  0  0  0  0  0  0  0  0  0  0
  -36.6957    5.3802  -42.7480 C   0  0  0  0  0  0  0  0  0  0  0  0
  -35.2421    5.4961  -42.2812 C   0  0  0  0  0  0  0  0  0  0  0  0
  -34.3113    5.1270  -43.4396 C   0  0  0  0  0  0  0  0  0  0  0  0
  -34.6386    3.7111  -43.9193 C   0  0  0  0  0  0  0  0  0  0  0  0
  -34.9719    6.8756  -41.8547 N   0  0  0  0  0  0  0  0  0  0  0  0
  -35.3278    7.9849  -43.1066 X   0  0  0  0  0  0  0  0  0  0  0  0
  1  2  1  0  0  0  0
  2  3  2  0  0  0  0
  2  7  1  0  0  0  0
  3  4  1  0  0  0  0
  4  5  2  0  0  0  0
  5  6  1  0  0  0  0
  5  8  1  0  0  0  0
  6  7  2  0  0  0  0
  8  9  1  0  0  0  0
  8 13  1  0  0  0  0
  9 10  1  0  0  0  0
 10 11  1  0  0  0  0
 11 12  1  0  0  0  0
 11 14  1  0  0  0  0
 12 13  1  0  0  0  0
 14 15  1  0  0  0  0
M  END
> <Index>
13466

> <PropertyFieldDistance>
nan

$$$$
8697764
BBcorina  12272117083D 1   1.00000     0.00000 
CORINA 4.3.0 0026  30.10.2019
 12 12  0  0  0  0  0  0  0  0999 V2000
  -36.2557    2.3339  -46.0286 C   0  0  0  0  0  0  0  0  0  0  0  0
  -36.2012    1.9951  -44.5376 C   0  0  0  0  0  0  0  0  0  0  0  0
  -35.1142    0.9467  -44.2922 C   0  0  0  0  0  0  0  0  0  0  0  0
  -35.1312    0.5293  -42.8203 C   0  0  0  0  0  0  0  0  0  0  0  0
  -34.0876   -0.4773  -42.5847 N   0  0  0  0  0  0  0  0  0  0  0  0
  -35.8925    3.2093  -43.7705 N   0  0  0  0  0  0  0  0  0  0  0  0
  -37.0292    4.1388  -43.7764 C   0  0  0  0  0  0  0  0  0  0  0  0
  -36.7282    5.3208  -42.8522 C   0  0  0  0  0  0  0  0  0  0  0  0
  -35.4613    6.0314  -43.3366 C   0  0  0  0  0  0  0  0  0  0  0  0
  -34.3037    5.0297  -43.3672 C   0  0  0  0  0  0  0  0  0  0  0  0
  -34.6750    3.8561  -44.2765 C   0  0  0  0  0  0  0  0  0  0  0  0
  -34.0721   -0.9723  -40.9480 X   0  0  0  0  0  0  0  0  0  0  0  0
  1  2  1  0  0  0  0
  2  3  1  0  0  0  0
  2  6  1  0  0  0  0
  3  4  1  0  0  0  0
  4  5  1  0  0  0  0
  5 12  1  0  0  0  0
  6  7  1  0  0  0  0
  6 11  1  0  0  0  0
  7  8  1  0  0  0  0
  8  9  1  0  0  0  0
  9 10  1  0  0  0  0
 10 11  1  0  0  0  0
M  END
> <Index>
13502

> <PropertyFieldDistance>
nan

$$$$
17630000
BBcorina  12272117083D 1   1.00000     0.00000 
CORINA 4.3.0 0026  30.10.2019
 11 11  0  0  0  0  0  0  0  0999 V2000
  -34.8935    0.9815  -45.6277 N   0  0  0  0  0  0  0  0  0  0  0  0
  -35.6732    1.3943  -44.4530 C   0  0  0  0  0  0  0  0  0  0  0  0
  -36.6547    2.5012  -44.9002 C   0  0  0  0  0  0  0  0  0  0  0  0
  -37.4527    2.8909  -43.6024 C   0  0  0  0  0  0  0  0  0  0  0  0
  -37.3917    4.4339  -43.5386 C   0  0  0  0  0  0  0  0  0  0  0  0
  -35.9913    5.0869  -43.4972 C   0  0  0  0  0  0  0  0  0  0  0  0
  -35.2932    4.4827  -42.2242 C   0  0  0  0  0  0  0  0  0  0  0  0
  -33.9031    4.0132  -42.7104 C   0  0  0  0  0  0  0  0  0  0  0  0
  -33.8655    2.9782  -43.8576 C   0  0  0  0  0  0  0  0  0  0  0  0
  -34.6783    1.7426  -43.3228 C   0  0  0  0  0  0  0  0  0  0  0  0
  -34.2105    2.3362  -46.4167 X   0  0  0  0  0  0  0  0  0  0  0  0
  1  2  1  0  0  0  0
  1 11  1  0  0  0  0
  2  3  1  0  0  0  0
  2 10  1  0  0  0  0
  3  4  1  0  0  0  0
  4  5  1  0  0  0  0
  5  6  1  0  0  0  0
  6  7  1  0  0  0  0
  7  8  1  0  0  0  0
  8  9  1  0  0  0  0
  9 10  1  0  0  0  0
M  END
> <Index>
13520

> <PropertyFieldDistance>
nan

$$$$
10304306
BBcorina  12272117083D 1   1.00000     0.00000 
CORINA 4.3.0 0026  30.10.2019
 12 13  0  0  0  0  0  0  0  0999 V2000
  -34.5380    1.0787  -45.4127 N   0  0  0  0  0  0  0  0  0  0  0  0
  -35.2256    1.5525  -44.2041 C   0  0  0  0  0  0  0  0  0  0  0  0
  -34.4856    1.0456  -42.9646 C   0  0  0  0  0  0  0  0  0  0  0  0
  -35.2017    1.5390  -41.7058 C   0  0  0  0  0  0  0  0  0  0  0  0
  -35.2225    3.0689  -41.6974 C   0  0  0  0  0  0  0  0  0  0  0  0
  -35.9625    3.5757  -42.9369 C   0  0  0  0  0  0  0  0  0  0  0  0
  -35.9832    5.1055  -42.9285 C   0  0  0  0  0  0  0  0  0  0  0  0
  -36.7232    5.6124  -44.1680 C   0  0  0  0  0  0  0  0  0  0  0  0
  -36.0071    5.1190  -45.4268 C   0  0  0  0  0  0  0  0  0  0  0  0
  -35.9863    3.5891  -45.4352 C   0  0  0  0  0  0  0  0  0  0  0  0
  -35.2463    3.0823  -44.1957 C   0  0  0  0  0  0  0  0  0  0  0  0
  -35.6212    0.9708  -46.7315 X   0  0  0  0  0  0  0  0  0  0  0  0
  1  2  1  0  0  0  0
  1 12  1  0  0  0  0
  2  3  1  0  0  0  0
  2 11  1  0  0  0  0
  3  4  1  0  0  0  0
  4  5  1  0  0  0  0
  5  6  1  0  0  0  0
  6  7  1  0  0  0  0
  6 11  1  0  0  0  0
  7  8  1  0  0  0  0
  8  9  1  0  0  0  0
  9 10  1  0  0  0  0
 10 11  1  0  0  0  0
M  END
> <Index>
13524

> <PropertyFieldDistance>
nan

$$$$
11968278
BBcorina  12272117083D 1   1.00000     0.00000 
CORINA 4.3.0 0026  30.10.2019
 14 14  0  0  0  0  0  0  0  0999 V2000
  -37.8452   -0.4755  -45.8642 C   0  0  0  0  0  0  0  0  0  0  0  0
  -36.8743    0.5582  -46.0399 O   0  0  0  0  0  0  0  0  0  0  0  0
  -37.0144    1.6485  -45.1268 C   0  0  0  0  0  0  0  0  0  0  0  0
  -38.0865    2.4918  -45.5529 O   0  0  0  0  0  0  0  0  0  0  0  0
  -39.3855    1.9724  -45.2618 C   0  0  0  0  0  0  0  0  0  0  0  0
  -35.7340    2.4425  -45.0923 C   0  0  0  0  0  0  0  0  0  0  0  0
  -34.7286    1.9944  -45.6015 O   0  0  0  0  0  0  0  0  0  0  0  0
  -35.7061    3.6507  -44.4956 N   0  0  0  0  0  0  0  0  0  0  0  0
  -36.9394    4.2698  -43.9867 C   0  0  0  0  0  0  0  0  0  0  0  0
  -36.7055    4.6976  -42.5338 C   0  0  0  0  0  0  0  0  0  0  0  0
  -35.5091    5.5471  -42.4634 N   0  0  0  0  0  0  0  0  0  0  0  0
  -34.3063    4.8082  -42.8696 C   0  0  0  0  0  0  0  0  0  0  0  0
  -34.4409    4.3822  -44.3307 C   0  0  0  0  0  0  0  0  0  0  0  0
  -35.3209    6.2121  -40.8993 X   0  0  0  0  0  0  0  0  0  0  0  0
  1  2  1  0  0  0  0
  2  3  1  0  0  0  0
  3  4  1  0  0  0  0
  3  6  1  0  0  0  0
  4  5  1  0  0  0  0
  6  7  2  0  0  0  0
  6  8  1  0  0  0  0
  8  9  1  0  0  0  0
  8 13  1  0  0  0  0
  9 10  1  0  0  0  0
 10 11  1  0  0  0  0
 11 12  1  0  0  0  0
 11 14  1  0  0  0  0
 12 13  1  0  0  0  0
M  END
> <Index>
13553

> <PropertyFieldDistance>
nan

$$$$
14779946
BBcorina  12272117083D 1   1.00000     0.00000 
CORINA 4.3.0 0026  30.10.2019
 10 11  0  0  0  0  0  0  0  0999 V2000
  -36.0018    3.9714  -44.5873 N   0  0  0  0  0  0  0  0  0  0  0  0
  -36.9927    4.0843  -43.5120 C   0  0  0  0  0  0  0  0  0  0  0  0
  -36.6003    5.1502  -42.5303 C   0  0  0  0  0  0  0  0  0  0  0  0
  -37.4576    5.6373  -41.8241 O   0  0  0  0  0  0  0  0  0  0  0  0
  -35.3370    5.5840  -42.4032 N   0  0  0  0  0  0  0  0  0  0  0  0
  -34.2758    5.0537  -43.2621 C   0  0  0  0  0  0  0  0  0  0  0  0
  -32.8309    5.1984  -42.7876 C   0  0  0  0  0  0  0  0  0  0  0  0
  -33.3454    6.0526  -43.9485 C   0  0  0  0  0  0  0  0  0  0  0  0
  -34.6499    3.7828  -44.0326 C   0  0  0  0  0  0  0  0  0  0  0  0
  -36.4055    2.7040  -45.6619 X   0  0  0  0  0  0  0  0  0  0  0  0
  1  2  1  0  0  0  0
  1  9  1  0  0  0  0
  1 10  1  0  0  0  0
  2  3  1  0  0  0  0
  3  4  2  0  0  0  0
  3  5  1  0  0  0  0
  5  6  1  0  0  0  0
  6  7  1  0  0  0  0
  6  8  1  0  0  0  0
  6  9  1  0  0  0  0
  7  8  1  0  0  0  0
M  END
> <Index>
13558

> <PropertyFieldDistance>
nan

$$$$
17792630
BBcorina  12272117083D 1   1.00000     0.00000 
CORINA 4.3.0 0026  30.10.2019
 11 11  0  0  0  0  0  0  0  0999 V2000
  -35.5836    9.8244  -39.8149 C   0  0  0  0  0  0  0  0  0  0  0  0
  -35.0254    8.4102  -39.9859 C   0  0  0  0  0  0  0  0  0  0  0  0
  -35.4942    7.8352  -41.3239 C   0  0  0  0  0  0  0  0  0  0  0  0
  -34.9728    6.5142  -41.4836 O   0  0  0  0  0  0  0  0  0  0  0  0
  -35.3535    5.8833  -42.7079 C   0  0  0  0  0  0  0  0  0  0  0  0
  -36.6585    5.1099  -42.5008 C   0  0  0  0  0  0  0  0  0  0  0  0
  -37.0291    4.3869  -43.7977 C   0  0  0  0  0  0  0  0  0  0  0  0
  -35.9480    3.4664  -44.1723 N   0  0  0  0  0  0  0  0  0  0  0  0
  -34.6958    4.1916  -44.4226 C   0  0  0  0  0  0  0  0  0  0  0  0
  -34.2559    4.9088  -43.1442 C   0  0  0  0  0  0  0  0  0  0  0  0
  -36.3899    2.5211  -45.5270 X   0  0  0  0  0  0  0  0  0  0  0  0
  1  2  1  0  0  0  0
  2  3  1  0  0  0  0
  3  4  1  0  0  0  0
  4  5  1  0  0  0  0
  5  6  1  0  0  0  0
  5 10  1  0  0  0  0
  6  7  1  0  0  0  0
  7  8  1  0  0  0  0
  8  9  1  0  0  0  0
  8 11  1  0  0  0  0
  9 10  1  0  0  0  0
M  END
> <Index>
13568

> <PropertyFieldDistance>
nan

$$$$
15146502
BBcorina  12272117083D 1   1.00000     0.00000 
CORINA 4.3.0 0026  30.10.2019
 15 16  0  0  0  0  0  0  0  0999 V2000
  -36.3495    2.3571  -44.9464 C   0  0  0  0  0  0  0  0  0  0  0  0
  -36.0372    3.6631  -44.3508 N   0  0  0  0  0  0  0  0  0  0  0  0
  -36.9514    3.9682  -43.2428 C   0  0  0  0  0  0  0  0  0  0  0  0
  -36.6923    5.3914  -42.7433 C   0  0  0  0  0  0  0  0  0  0  0  0
  -35.2385    5.5067  -42.2767 C   0  0  0  0  0  0  0  0  0  0  0  0
  -34.3080    5.1368  -43.4352 C   0  0  0  0  0  0  0  0  0  0  0  0
  -34.6362    3.7211  -43.9146 C   0  0  0  0  0  0  0  0  0  0  0  0
  -34.9605    6.9218  -41.8395 C   0  0  0  0  0  0  0  0  0  0  0  0
  -35.1009    7.9625  -42.7389 C   0  0  0  0  0  0  0  0  0  0  0  0
  -34.8523    9.2634  -42.3402 C   0  0  0  0  0  0  0  0  0  0  0  0
  -34.4519    9.5256  -41.0450 C   0  0  0  0  0  0  0  0  0  0  0  0
  -34.3043    8.4817  -40.1403 C   0  0  0  0  0  0  0  0  0  0  0  0
  -33.8999    8.7434  -38.8293 N   0  0  0  0  0  0  0  0  0  0  0  0
  -34.5603    7.1771  -40.5424 C   0  0  0  0  0  0  0  0  0  0  0  0
  -33.5853   10.3503  -38.3363 X   0  0  0  0  0  0  0  0  0  0  0  0
  1  2  1  0  0  0  0
  2  3  1  0  0  0  0
  2  7  1  0  0  0  0
  3  4  1  0  0  0  0
  4  5  1  0  0  0  0
  5  6  1  0  0  0  0
  5  8  1  0  0  0  0
  6  7  1  0  0  0  0
  8  9  2  0  0  0  0
  8 14  1  0  0  0  0
  9 10  1  0  0  0  0
 10 11  2  0  0  0  0
 11 12  1  0  0  0  0
 12 13  1  0  0  0  0
 12 14  2  0  0  0  0
 13 15  1  0  0  0  0
M  END
> <Index>
13569

> <PropertyFieldDistance>
nan

$$$$
10855410
BBcorina  12272117083D 1   1.00000     0.00000 
CORINA 4.3.0 0026  30.10.2019
 11 12  0  0  0  0  0  0  0  0999 V2000
  -36.0203    3.9395  -44.5844 N   0  0  0  0  0  0  0  0  0  0  0  0
  -36.9660    4.0060  -43.4630 C   0  0  0  0  0  0  0  0  0  0  0  0
  -36.6823    5.2544  -42.6243 C   0  0  0  0  0  0  0  0  0  0  0  0
  -35.2480    5.1877  -42.0888 C   0  0  0  0  0  0  0  0  0  0  0  0
  -34.2825    5.0416  -43.2615 C   0  0  0  0  0  0  0  0  0  0  0  0
  -34.3117    6.3150  -44.1323 C   0  0  0  0  0  0  0  0  0  0  0  0
  -33.0714    7.0881  -43.6128 C   0  0  0  0  0  0  0  0  0  0  0  0
  -32.1107    6.0441  -43.3421 O   0  0  0  0  0  0  0  0  0  0  0  0
  -32.8352    4.9471  -42.7572 C   0  0  0  0  0  0  0  0  0  0  0  0
  -34.6362    3.8222  -44.1045 C   0  0  0  0  0  0  0  0  0  0  0  0
  -36.4131    2.6543  -45.6419 X   0  0  0  0  0  0  0  0  0  0  0  0
  1  2  1  0  0  0  0
  1 10  1  0  0  0  0
  1 11  1  0  0  0  0
  2  3  1  0  0  0  0
  3  4  1  0  0  0  0
  4  5  1  0  0  0  0
  5  6  1  0  0  0  0
  5  9  1  0  0  0  0
  5 10  1  0  0  0  0
  6  7  1  0  0  0  0
  7  8  1  0  0  0  0
  8  9  1  0  0  0  0
M  END
> <Index>
13574

> <PropertyFieldDistance>
nan

$$$$
13610038
BBcorina  12272117083D 1   1.00000     0.00000 
CORINA 4.3.0 0026  30.10.2019
  9  9  0  0  0  0  0  0  0  0999 V2000
  -37.3190    6.5207  -40.6937 O   0  0  0  0  0  0  0  0  0  0  0  0
  -37.5651    5.3158  -41.4217 C   0  0  0  0  0  0  0  0  0  0  0  0
  -36.6293    5.2502  -42.6303 C   0  0  0  0  0  0  0  0  0  0  0  0
  -36.9724    4.0211  -43.4763 C   0  0  0  0  0  0  0  0  0  0  0  0
  -36.0215    3.9204  -44.5930 N   0  0  0  0  0  0  0  0  0  0  0  0
  -34.6419    3.8204  -44.0951 C   0  0  0  0  0  0  0  0  0  0  0  0
  -34.3222    5.0514  -43.2430 C   0  0  0  0  0  0  0  0  0  0  0  0
  -35.2752    5.1507  -42.1812 O   0  0  0  0  0  0  0  0  0  0  0  0
  -36.4046    2.5974  -45.6065 X   0  0  0  0  0  0  0  0  0  0  0  0
  1  2  1  0  0  0  0
  2  3  1  0  0  0  0
  3  4  1  0  0  0  0
  3  8  1  0  0  0  0
  4  5  1  0  0  0  0
  5  6  1  0  0  0  0
  5  9  1  0  0  0  0
  6  7  1  0  0  0  0
  7  8  1  0  0  0  0
M  END
> <Index>
13575

> <PropertyFieldDistance>
nan

$$$$
11950440
BBcorina  12272117083D 1   1.00000     0.00000 
CORINA 4.3.0 0026  30.10.2019
 12 13  0  0  0  0  0  0  0  0999 V2000
  -36.0191    3.9414  -44.5845 N   0  0  0  0  0  0  0  0  0  0  0  0
  -36.9723    4.0087  -43.4695 C   0  0  0  0  0  0  0  0  0  0  0  0
  -36.6793    5.2476  -42.6202 C   0  0  0  0  0  0  0  0  0  0  0  0
  -35.2462    5.1676  -42.0870 C   0  0  0  0  0  0  0  0  0  0  0  0
  -34.2770    5.0496  -43.2665 C   0  0  0  0  0  0  0  0  0  0  0  0
  -34.6396    3.8164  -44.0970 C   0  0  0  0  0  0  0  0  0  0  0  0
  -34.9316    6.4133  -41.2993 C   0  0  0  0  0  0  0  0  0  0  0  0
  -34.5872    6.4563  -39.9998 C   0  0  0  0  0  0  0  0  0  0  0  0
  -34.3814    7.8169  -39.6754 C   0  0  0  0  0  0  0  0  0  0  0  0
  -34.6204    8.5247  -40.7940 C   0  0  0  0  0  0  0  0  0  0  0  0
  -34.9532    7.6693  -41.7745 O   0  0  0  0  0  0  0  0  0  0  0  0
  -36.4111    2.6621  -45.6494 X   0  0  0  0  0  0  0  0  0  0  0  0
  1  2  1  0  0  0  0
  1  6  1  0  0  0  0
  1 12  1  0  0  0  0
  2  3  1  0  0  0  0
  3  4  1  0  0  0  0
  4  5  1  0  0  0  0
  4  7  1  0  0  0  0
  5  6  1  0  0  0  0
  7  8  2  0  0  0  0
  7 11  1  0  0  0  0
  8  9  1  0  0  0  0
  9 10  2  0  0  0  0
 10 11  1  0  0  0  0
M  END
> <Index>
13579

> <PropertyFieldDistance>
nan

$$$$
11686586
BBcorina  12272117083D 1   1.00000     0.00000 
CORINA 4.3.0 0026  30.10.2019
 11 11  0  0  0  0  0  0  0  0999 V2000
  -36.0435    7.5322  -40.9622 C   0  0  0  0  0  0  0  0  0  0  0  0
  -34.9460    6.5589  -41.3971 C   0  0  0  0  0  0  0  0  0  0  0  0
  -33.6376    7.3246  -41.6034 C   0  0  0  0  0  0  0  0  0  0  0  0
  -33.1959    7.8585  -40.3535 O   0  0  0  0  0  0  0  0  0  0  0  0
  -35.3535    5.8833  -42.7079 C   0  0  0  0  0  0  0  0  0  0  0  0
  -36.6585    5.1099  -42.5008 C   0  0  0  0  0  0  0  0  0  0  0  0
  -37.0291    4.3869  -43.7977 C   0  0  0  0  0  0  0  0  0  0  0  0
  -35.9480    3.4664  -44.1723 N   0  0  0  0  0  0  0  0  0  0  0  0
  -34.6958    4.1916  -44.4226 C   0  0  0  0  0  0  0  0  0  0  0  0
  -34.2559    4.9088  -43.1442 C   0  0  0  0  0  0  0  0  0  0  0  0
  -36.3899    2.5211  -45.5270 X   0  0  0  0  0  0  0  0  0  0  0  0
  1  2  1  0  0  0  0
  2  3  1  0  0  0  0
  2  5  1  0  0  0  0
  3  4  1  0  0  0  0
  5  6  1  0  0  0  0
  5 10  1  0  0  0  0
  6  7  1  0  0  0  0
  7  8  1  0  0  0  0
  8  9  1  0  0  0  0
  8 11  1  0  0  0  0
  9 10  1  0  0  0  0
M  END
> <Index>
13596

> <PropertyFieldDistance>
nan

$$$$
12851806
BBcorina  12272117083D 1   1.00000     0.00000 
CORINA 4.3.0 0026  30.10.2019
 11 11  0  0  0  0  0  0  0  0999 V2000
  -34.3360    7.6659  -43.9835 O   0  0  0  0  0  0  0  0  0  0  0  0
  -35.5546    6.9450  -43.7910 C   0  0  0  0  0  0  0  0  0  0  0  0
  -35.3534    5.8832  -42.7080 C   0  0  0  0  0  0  0  0  0  0  0  0
  -34.9466    6.5601  -41.3976 C   0  0  0  0  0  0  0  0  0  0  0  0
  -33.7284    7.2814  -41.5923 O   0  0  0  0  0  0  0  0  0  0  0  0
  -36.6587    5.1099  -42.5007 C   0  0  0  0  0  0  0  0  0  0  0  0
  -37.0290    4.3869  -43.7977 C   0  0  0  0  0  0  0  0  0  0  0  0
  -35.9480    3.4664  -44.1723 N   0  0  0  0  0  0  0  0  0  0  0  0
  -34.6958    4.1917  -44.4226 C   0  0  0  0  0  0  0  0  0  0  0  0
  -34.2559    4.9088  -43.1443 C   0  0  0  0  0  0  0  0  0  0  0  0
  -36.3899    2.5210  -45.5270 X   0  0  0  0  0  0  0  0  0  0  0  0
  1  2  1  0  0  0  0
  2  3  1  0  0  0  0
  3  4  1  0  0  0  0
  3  6  1  0  0  0  0
  3 10  1  0  0  0  0
  4  5  1  0  0  0  0
  6  7  1  0  0  0  0
  7  8  1  0  0  0  0
  8  9  1  0  0  0  0
  8 11  1  0  0  0  0
  9 10  1  0  0  0  0
M  END
> <Index>
13599

> <PropertyFieldDistance>
nan

$$$$
12362816
BBcorina  12272117083D 1   1.00000     0.00000 
CORINA 4.3.0 0026  30.10.2019
  9  9  0  0  0  0  0  0  0  0999 V2000
  -36.1985    7.8904  -40.8862 C   0  0  0  0  0  0  0  0  0  0  0  0
  -34.8703    6.6842  -41.1538 S   0  0  0  0  0  0  0  0  0  0  0  0
  -35.3535    5.8833  -42.7079 C   0  0  0  0  0  0  0  0  0  0  0  0
  -36.6585    5.1099  -42.5008 C   0  0  0  0  0  0  0  0  0  0  0  0
  -37.0291    4.3869  -43.7977 C   0  0  0  0  0  0  0  0  0  0  0  0
  -35.9480    3.4664  -44.1723 N   0  0  0  0  0  0  0  0  0  0  0  0
  -34.6958    4.1916  -44.4226 C   0  0  0  0  0  0  0  0  0  0  0  0
  -34.2559    4.9088  -43.1442 C   0  0  0  0  0  0  0  0  0  0  0  0
  -36.3899    2.5211  -45.5270 X   0  0  0  0  0  0  0  0  0  0  0  0
  1  2  1  0  0  0  0
  2  3  1  0  0  0  0
  3  4  1  0  0  0  0
  3  8  1  0  0  0  0
  4  5  1  0  0  0  0
  5  6  1  0  0  0  0
  6  7  1  0  0  0  0
  6  9  1  0  0  0  0
  7  8  1  0  0  0  0
M  END
> <Index>
13600

> <PropertyFieldDistance>
nan

$$$$
9108614
BBcorina  12272117083D 1   1.00000     0.00000 
CORINA 4.3.0 0026  30.10.2019
 10 10  0  0  0  0  0  0  0  0999 V2000
  -31.8798    4.7860  -43.9196 C   0  0  0  0  0  0  0  0  0  0  0  0
  -32.8471    4.9088  -42.7406 C   0  0  0  0  0  0  0  0  0  0  0  0
  -32.4853    6.1421  -41.9104 C   0  0  0  0  0  0  0  0  0  0  0  0
  -34.2770    5.0496  -43.2665 C   0  0  0  0  0  0  0  0  0  0  0  0
  -35.2462    5.1676  -42.0870 C   0  0  0  0  0  0  0  0  0  0  0  0
  -36.6793    5.2476  -42.6202 C   0  0  0  0  0  0  0  0  0  0  0  0
  -36.9723    4.0087  -43.4695 C   0  0  0  0  0  0  0  0  0  0  0  0
  -36.0192    3.9414  -44.5845 N   0  0  0  0  0  0  0  0  0  0  0  0
  -34.6396    3.8164  -44.0971 C   0  0  0  0  0  0  0  0  0  0  0  0
  -36.4110    2.6621  -45.6493 X   0  0  0  0  0  0  0  0  0  0  0  0
  1  2  1  0  0  0  0
  2  3  1  0  0  0  0
  2  4  1  0  0  0  0
  4  5  1  0  0  0  0
  4  9  1  0  0  0  0
  5  6  1  0  0  0  0
  6  7  1  0  0  0  0
  7  8  1  0  0  0  0
  8  9  1  0  0  0  0
  8 10  1  0  0  0  0
M  END
> <Index>
13602

> <PropertyFieldDistance>
nan

$$$$
16521768
BBcorina  12272117083D 1   1.00000     0.00000 
CORINA 4.3.0 0026  30.10.2019
  9  9  0  0  0  0  0  0  0  0999 V2000
  -31.8373    4.6886  -40.7625 F   0  0  0  0  0  0  0  0  0  0  0  0
  -32.5929    4.8716  -41.9256 C   0  0  0  0  0  0  0  0  0  0  0  0
  -34.0823    4.8033  -41.5822 C   0  0  0  0  0  0  0  0  0  0  0  0
  -34.9087    5.0034  -42.8542 C   0  0  0  0  0  0  0  0  0  0  0  0
  -36.4203    5.0032  -42.5302 C   0  0  0  0  0  0  0  0  0  0  0  0
  -37.0792    4.2273  -43.6856 C   0  0  0  0  0  0  0  0  0  0  0  0
  -35.9998    3.8418  -44.6205 N   0  0  0  0  0  0  0  0  0  0  0  0
  -34.7584    3.7908  -43.8067 C   0  0  0  0  0  0  0  0  0  0  0  0
  -36.3244    2.3246  -45.3392 X   0  0  0  0  0  0  0  0  0  0  0  0
  1  2  1  0  0  0  0
  2  3  1  0  0  0  0
  3  4  1  0  0  0  0
  4  5  1  0  0  0  0
  4  8  1  0  0  0  0
  5  6  1  0  0  0  0
  6  7  1  0  0  0  0
  7  8  1  0  0  0  0
  7  9  1  0  0  0  0
M  END
> <Index>
13613

> <PropertyFieldDistance>
nan

$$$$
14592446
BBcorina  12272117083D 1   1.00000     0.00000 
CORINA 4.3.0 0026  30.10.2019
  9  9  0  0  0  0  0  0  0  0999 V2000
  -37.1303    1.1660  -42.9420 C   0  0  0  0  0  0  0  0  0  0  0  0
  -37.1279    2.6302  -43.0605 N   0  0  0  0  0  0  0  0  0  0  0  0
  -35.7755    3.1338  -43.3353 C   0  0  0  0  0  0  0  0  0  0  0  0
  -35.7962    4.6595  -43.3269 C   0  0  0  0  0  0  0  0  0  0  0  0
  -34.3645    5.2015  -43.3377 C   0  0  0  0  0  0  0  0  0  0  0  0
  -33.5540    4.6879  -44.8812 S   0  0  0  0  0  0  0  0  0  0  0  0
  -33.8153    2.8893  -44.8729 C   0  0  0  0  0  0  0  0  0  0  0  0
  -35.3089    2.6076  -44.6893 C   0  0  0  0  0  0  0  0  0  0  0  0
  -38.2307    3.1498  -44.2596 X   0  0  0  0  0  0  0  0  0  0  0  0
  1  2  1  0  0  0  0
  2  3  1  0  0  0  0
  2  9  1  0  0  0  0
  3  4  1  0  0  0  0
  3  8  1  0  0  0  0
  4  5  1  0  0  0  0
  5  6  1  0  0  0  0
  6  7  1  0  0  0  0
  7  8  1  0  0  0  0
M  END
> <Index>
13614

> <PropertyFieldDistance>
nan

$$$$
9477436
BBcorina  12272117083D 1   1.00000     0.00000 
CORINA 4.3.0 0026  30.10.2019
 10 11  0  0  0  0  0  0  0  0999 V2000
  -35.9509    3.4659  -44.1721 N   0  0  0  0  0  0  0  0  0  0  0  0
  -37.0163    4.4070  -43.8052 C   0  0  0  0  0  0  0  0  0  0  0  0
  -36.6644    5.0981  -42.4860 C   0  0  0  0  0  0  0  0  0  0  0  0
  -35.3569    5.8791  -42.6592 C   0  0  0  0  0  0  0  0  0  0  0  0
  -34.2724    4.9242  -43.1563 C   0  0  0  0  0  0  0  0  0  0  0  0
  -33.7031    4.0188  -42.0570 C   0  0  0  0  0  0  0  0  0  0  0  0
  -32.6681    5.1258  -41.7916 C   0  0  0  0  0  0  0  0  0  0  0  0
  -32.8842    5.5689  -43.2510 C   0  0  0  0  0  0  0  0  0  0  0  0
  -34.6833    4.1684  -44.4182 C   0  0  0  0  0  0  0  0  0  0  0  0
  -36.4036    2.5258  -45.5269 X   0  0  0  0  0  0  0  0  0  0  0  0
  1  2  1  0  0  0  0
  1  9  1  0  0  0  0
  1 10  1  0  0  0  0
  2  3  1  0  0  0  0
  3  4  1  0  0  0  0
  4  5  1  0  0  0  0
  5  6  1  0  0  0  0
  5  8  1  0  0  0  0
  5  9  1  0  0  0  0
  6  7  1  0  0  0  0
  7  8  1  0  0  0  0
M  END
> <Index>
13618

> <PropertyFieldDistance>
nan

$$$$
6955624
BBcorina  12272117083D 1   1.00000     0.00000 
CORINA 4.3.0 0026  30.10.2019
 13 13  0  0  0  0  0  0  0  0999 V2000
  -35.5741    1.5591  -45.5304 C   0  0  0  0  0  0  0  0  0  0  0  0
  -36.5653    2.4359  -44.8095 C   0  0  0  0  0  0  0  0  0  0  0  0
  -37.6957    2.0413  -44.6162 O   0  0  0  0  0  0  0  0  0  0  0  0
  -36.1956    3.6587  -44.3797 N   0  0  0  0  0  0  0  0  0  0  0  0
  -37.1507    4.5250  -43.6754 C   0  0  0  0  0  0  0  0  0  0  0  0
  -36.5342    4.9626  -42.3430 C   0  0  0  0  0  0  0  0  0  0  0  0
  -35.1703    5.6112  -42.6088 C   0  0  0  0  0  0  0  0  0  0  0  0
  -34.5636    6.0806  -41.2849 C   0  0  0  0  0  0  0  0  0  0  0  0
  -35.4339    7.1894  -40.6898 C   0  0  0  0  0  0  0  0  0  0  0  0
  -34.8513    7.6399  -39.4187 N   0  0  0  0  0  0  0  0  0  0  0  0
  -34.2360    4.5920  -43.2648 C   0  0  0  0  0  0  0  0  0  0  0  0
  -34.8297    4.1504  -44.6061 C   0  0  0  0  0  0  0  0  0  0  0  0
  -35.7953    8.8819  -38.7182 X   0  0  0  0  0  0  0  0  0  0  0  0
  1  2  1  0  0  0  0
  2  3  2  0  0  0  0
  2  4  1  0  0  0  0
  4  5  1  0  0  0  0
  4 12  1  0  0  0  0
  5  6  1  0  0  0  0
  6  7  1  0  0  0  0
  7  8  1  0  0  0  0
  7 11  1  0  0  0  0
  8  9  1  0  0  0  0
  9 10  1  0  0  0  0
 10 13  1  0  0  0  0
 11 12  1  0  0  0  0
M  END
> <Index>
13619

> <PropertyFieldDistance>
nan

$$$$
14316642
BBcorina  12272117083D 1   1.00000     0.00000 
CORINA 4.3.0 0026  30.10.2019
 13 14  0  0  0  0  0  0  0  0999 V2000
  -35.6541    0.2240  -48.3567 N   0  0  0  0  0  0  0  0  0  0  0  0
  -35.3191   -0.4678  -47.1054 C   0  0  0  0  0  0  0  0  0  0  0  0
  -36.1102    0.1515  -45.9511 C   0  0  0  0  0  0  0  0  0  0  0  0
  -35.7643    1.6392  -45.8420 C   0  0  0  0  0  0  0  0  0  0  0  0
  -36.5974    2.2775  -44.7288 C   0  0  0  0  0  0  0  0  0  0  0  0
  -36.1803    3.6739  -44.5443 N   0  0  0  0  0  0  0  0  0  0  0  0
  -37.1113    4.3902  -43.6533 C   0  0  0  0  0  0  0  0  0  0  0  0
  -36.2803    4.9534  -42.4812 C   0  0  0  0  0  0  0  0  0  0  0  0
  -34.8448    5.0110  -43.0665 C   0  0  0  0  0  0  0  0  0  0  0  0
  -34.8223    3.7491  -43.9648 C   0  0  0  0  0  0  0  0  0  0  0  0
  -36.0773    2.3268  -47.1738 C   0  0  0  0  0  0  0  0  0  0  0  0
  -35.2872    1.6445  -48.2928 C   0  0  0  0  0  0  0  0  0  0  0  0
  -34.9150   -0.5401  -49.6961 X   0  0  0  0  0  0  0  0  0  0  0  0
  1  2  1  0  0  0  0
  1 12  1  0  0  0  0
  1 13  1  0  0  0  0
  2  3  1  0  0  0  0
  3  4  1  0  0  0  0
  4  5  1  0  0  0  0
  4 11  1  0  0  0  0
  5  6  1  0  0  0  0
  6  7  1  0  0  0  0
  6 10  1  0  0  0  0
  7  8  1  0  0  0  0
  8  9  1  0  0  0  0
  9 10  1  0  0  0  0
 11 12  1  0  0  0  0
M  END
> <Index>
13630

> <PropertyFieldDistance>
nan

$$$$
12428890
BBcorina  12272117083D 1   1.00000     0.00000 
CORINA 4.3.0 0026  30.10.2019
 16 17  0  0  0  0  0  0  0  0999 V2000
  -34.9723    6.8746  -41.8551 N   0  0  0  0  0  0  0  0  0  0  0  0
  -35.2423    5.4951  -42.2816 C   0  0  0  0  0  0  0  0  0  0  0  0
  -36.6961    5.3791  -42.7485 C   0  0  0  0  0  0  0  0  0  0  0  0
  -36.9542    3.9559  -43.2483 C   0  0  0  0  0  0  0  0  0  0  0  0
  -36.0396    3.6514  -44.3562 N   0  0  0  0  0  0  0  0  0  0  0  0
  -34.6388    3.7102  -43.9198 C   0  0  0  0  0  0  0  0  0  0  0  0
  -34.3115    5.1260  -43.4401 C   0  0  0  0  0  0  0  0  0  0  0  0
  -36.3345    2.4152  -44.9202 C   0  0  0  0  0  0  0  0  0  0  0  0
  -36.2788    1.2639  -44.1462 C   0  0  0  0  0  0  0  0  0  0  0  0
  -36.5723    0.0376  -44.7082 C   0  0  0  0  0  0  0  0  0  0  0  0
  -36.9238   -0.0553  -46.0448 C   0  0  0  0  0  0  0  0  0  0  0  0
  -36.9845    1.0766  -46.8292 C   0  0  0  0  0  0  0  0  0  0  0  0
  -36.6904    2.3247  -46.2753 C   0  0  0  0  0  0  0  0  0  0  0  0
  -36.7510    3.5045  -47.0846 C   0  0  0  0  0  0  0  0  0  0  0  0
  -36.7992    4.4404  -47.7267 N   0  0  0  0  0  0  0  0  0  0  0  0
  -33.7810    6.9149  -40.6291 X   0  0  0  0  0  0  0  0  0  0  0  0
  1  2  1  0  0  0  0
  1 16  1  0  0  0  0
  2  3  1  0  0  0  0
  2  7  1  0  0  0  0
  3  4  1  0  0  0  0
  4  5  1  0  0  0  0
  5  6  1  0  0  0  0
  5  8  1  0  0  0  0
  6  7  1  0  0  0  0
  8  9  2  0  0  0  0
  8 13  1  0  0  0  0
  9 10  1  0  0  0  0
 10 11  2  0  0  0  0
 11 12  1  0  0  0  0
 12 13  2  0  0  0  0
 13 14  1  0  0  0  0
 14 15  3  0  0  0  0
M  END
> <Index>
13636

> <PropertyFieldDistance>
nan

$$$$
16513302
BBcorina  12272117083D 1   1.00000     0.00000 
CORINA 4.3.0 0026  30.10.2019
 13 13  0  0  0  0  0  0  0  0999 V2000
  -34.2497    7.7169  -43.9971 C   0  0  0  0  0  0  0  0  0  0  0  0
  -35.5546    6.9450  -43.7910 C   0  0  0  0  0  0  0  0  0  0  0  0
  -35.3534    5.8832  -42.7080 C   0  0  0  0  0  0  0  0  0  0  0  0
  -36.6587    5.1099  -42.5007 C   0  0  0  0  0  0  0  0  0  0  0  0
  -37.0290    4.3869  -43.7977 C   0  0  0  0  0  0  0  0  0  0  0  0
  -35.9479    3.4664  -44.1723 N   0  0  0  0  0  0  0  0  0  0  0  0
  -34.6958    4.1916  -44.4226 C   0  0  0  0  0  0  0  0  0  0  0  0
  -34.2559    4.9088  -43.1443 C   0  0  0  0  0  0  0  0  0  0  0  0
  -34.9519    6.5487  -41.4169 C   0  0  0  0  0  0  0  0  0  0  0  0
  -35.6385    6.4187  -40.4312 O   0  0  0  0  0  0  0  0  0  0  0  0
  -33.8315    7.2860  -41.3619 O   0  0  0  0  0  0  0  0  0  0  0  0
  -33.5067    7.8974  -40.0857 C   0  0  0  0  0  0  0  0  0  0  0  0
  -36.3899    2.5210  -45.5270 X   0  0  0  0  0  0  0  0  0  0  0  0
  1  2  1  0  0  0  0
  2  3  1  0  0  0  0
  3  4  1  0  0  0  0
  3  8  1  0  0  0  0
  3  9  1  0  0  0  0
  4  5  1  0  0  0  0
  5  6  1  0  0  0  0
  6  7  1  0  0  0  0
  6 13  1  0  0  0  0
  7  8  1  0  0  0  0
  9 10  2  0  0  0  0
  9 11  1  0  0  0  0
 11 12  1  0  0  0  0
M  END
> <Index>
13643

> <PropertyFieldDistance>
nan

$$$$
10744700
BBcorina  12272117083D 1   1.00000     0.00000 
CORINA 4.3.0 0026  30.10.2019
 13 13  0  0  0  0  0  0  0  0999 V2000
  -33.4867    7.7930  -40.0001 C   0  0  0  0  0  0  0  0  0  0  0  0
  -33.7214    6.5653  -40.7391 O   0  0  0  0  0  0  0  0  0  0  0  0
  -34.9316    6.4131  -41.2993 C   0  0  0  0  0  0  0  0  0  0  0  0
  -35.7672    7.2773  -41.1763 O   0  0  0  0  0  0  0  0  0  0  0  0
  -35.2462    5.1676  -42.0870 C   0  0  0  0  0  0  0  0  0  0  0  0
  -36.6793    5.2476  -42.6202 C   0  0  0  0  0  0  0  0  0  0  0  0
  -36.9723    4.0087  -43.4695 C   0  0  0  0  0  0  0  0  0  0  0  0
  -36.0191    3.9414  -44.5845 N   0  0  0  0  0  0  0  0  0  0  0  0
  -34.6396    3.8164  -44.0970 C   0  0  0  0  0  0  0  0  0  0  0  0
  -34.2770    5.0496  -43.2665 C   0  0  0  0  0  0  0  0  0  0  0  0
  -35.1101    3.9879  -41.2170 C   0  0  0  0  0  0  0  0  0  0  0  0
  -35.0051    3.0776  -40.5456 N   0  0  0  0  0  0  0  0  0  0  0  0
  -36.4110    2.6622  -45.6495 X   0  0  0  0  0  0  0  0  0  0  0  0
  1  2  1  0  0  0  0
  2  3  1  0  0  0  0
  3  4  2  0  0  0  0
  3  5  1  0  0  0  0
  5  6  1  0  0  0  0
  5 10  1  0  0  0  0
  5 11  1  0  0  0  0
  6  7  1  0  0  0  0
  7  8  1  0  0  0  0
  8  9  1  0  0  0  0
  8 13  1  0  0  0  0
  9 10  1  0  0  0  0
 11 12  3  0  0  0  0
M  END
> <Index>
13648

> <PropertyFieldDistance>
nan

$$$$
14468546
BBcorina  12272117083D 1   1.00000     0.00000 
CORINA 4.3.0 0026  30.10.2019
 12 13  0  0  0  0  0  0  0  0999 V2000
  -34.5324    1.3152  -47.5813 N   0  0  0  0  0  0  0  0  0  0  0  0
  -35.6582    1.3362  -46.6378 C   0  0  0  0  0  0  0  0  0  0  0  0
  -35.2268    1.2802  -45.1627 C   0  0  0  0  0  0  0  0  0  0  0  0
  -36.3354    2.3075  -44.8786 C   0  0  0  0  0  0  0  0  0  0  0  0
  -36.1915    2.7489  -46.3466 C   0  0  0  0  0  0  0  0  0  0  0  0
  -35.9453    3.3417  -43.9110 N   0  0  0  0  0  0  0  0  0  0  0  0
  -37.0433    4.2897  -43.6828 C   0  0  0  0  0  0  0  0  0  0  0  0
  -36.6554    5.2624  -42.5667 C   0  0  0  0  0  0  0  0  0  0  0  0
  -35.3833    6.0133  -42.9700 C   0  0  0  0  0  0  0  0  0  0  0  0
  -34.2692    5.0007  -43.2489 C   0  0  0  0  0  0  0  0  0  0  0  0
  -34.7262    4.0356  -44.3451 C   0  0  0  0  0  0  0  0  0  0  0  0
  -34.9816    0.5728  -49.0547 X   0  0  0  0  0  0  0  0  0  0  0  0
  1  2  1  0  0  0  0
  1 12  1  0  0  0  0
  2  3  1  0  0  0  0
  2  5  1  0  0  0  0
  3  4  1  0  0  0  0
  4  5  1  0  0  0  0
  4  6  1  0  0  0  0
  6  7  1  0  0  0  0
  6 11  1  0  0  0  0
  7  8  1  0  0  0  0
  8  9  1  0  0  0  0
  9 10  1  0  0  0  0
 10 11  1  0  0  0  0
M  END
> <Index>
13651

> <PropertyFieldDistance>
nan

$$$$
11618742
BBcorina  12272117083D 1   1.00000     0.00000 
CORINA 4.3.0 0026  30.10.2019
 12 13  0  0  0  0  0  0  0  0999 V2000
  -36.6711   -1.0187  -44.3465 N   0  0  0  0  0  0  0  0  0  0  0  0
  -36.6888    0.2355  -45.1112 C   0  0  0  0  0  0  0  0  0  0  0  0
  -37.4545    1.3718  -44.4132 C   0  0  0  0  0  0  0  0  0  0  0  0
  -36.3427    2.3152  -44.9018 C   0  0  0  0  0  0  0  0  0  0  0  0
  -35.4188    1.0840  -44.9324 C   0  0  0  0  0  0  0  0  0  0  0  0
  -35.9485    3.3238  -43.9093 N   0  0  0  0  0  0  0  0  0  0  0  0
  -37.0377    4.2819  -43.6704 C   0  0  0  0  0  0  0  0  0  0  0  0
  -36.6071    5.2766  -42.5891 C   0  0  0  0  0  0  0  0  0  0  0  0
  -35.3979    5.9223  -42.9967 O   0  0  0  0  0  0  0  0  0  0  0  0
  -34.3157    5.0188  -43.2373 C   0  0  0  0  0  0  0  0  0  0  0  0
  -34.7230    4.0214  -44.3252 C   0  0  0  0  0  0  0  0  0  0  0  0
  -36.0668   -0.7647  -42.7670 X   0  0  0  0  0  0  0  0  0  0  0  0
  1  2  1  0  0  0  0
  1 12  1  0  0  0  0
  2  3  1  0  0  0  0
  2  5  1  0  0  0  0
  3  4  1  0  0  0  0
  4  5  1  0  0  0  0
  4  6  1  0  0  0  0
  6  7  1  0  0  0  0
  6 11  1  0  0  0  0
  7  8  1  0  0  0  0
  8  9  1  0  0  0  0
  9 10  1  0  0  0  0
 10 11  1  0  0  0  0
M  END
> <Index>
13652

> <PropertyFieldDistance>
nan

$$$$
15102202
BBcorina  12272117083D 1   1.00000     0.00000 
CORINA 4.3.0 0026  30.10.2019
 13 14  0  0  0  0  0  0  0  0999 V2000
  -32.9125    5.1891  -42.9792 N   0  0  0  0  0  0  0  0  0  0  0  0
  -34.3081    5.1368  -43.4351 C   0  0  0  0  0  0  0  0  0  0  0  0
  -35.2384    5.5076  -42.2769 C   0  0  0  0  0  0  0  0  0  0  0  0
  -36.6923    5.3914  -42.7433 C   0  0  0  0  0  0  0  0  0  0  0  0
  -36.9513    3.9683  -43.2428 C   0  0  0  0  0  0  0  0  0  0  0  0
  -36.0372    3.6630  -44.3508 N   0  0  0  0  0  0  0  0  0  0  0  0
  -34.6362    3.7211  -43.9147 C   0  0  0  0  0  0  0  0  0  0  0  0
  -36.3496    2.3570  -44.9464 C   0  0  0  0  0  0  0  0  0  0  0  0
  -37.8120    2.3318  -45.4243 C   0  0  0  0  0  0  0  0  0  0  0  0
  -37.7740    2.0829  -46.9463 C   0  0  0  0  0  0  0  0  0  0  0  0
  -36.4114    1.3857  -47.1833 C   0  0  0  0  0  0  0  0  0  0  0  0
  -35.4740    2.1226  -46.1946 C   0  0  0  0  0  0  0  0  0  0  0  0
  -32.2480    6.7466  -43.2172 X   0  0  0  0  0  0  0  0  0  0  0  0
  1  2  1  0  0  0  0
  1 13  1  0  0  0  0
  2  3  1  0  0  0  0
  2  7  1  0  0  0  0
  3  4  1  0  0  0  0
  4  5  1  0  0  0  0
  5  6  1  0  0  0  0
  6  7  1  0  0  0  0
  6  8  1  0  0  0  0
  8  9  1  0  0  0  0
  8 12  1  0  0  0  0
  9 10  1  0  0  0  0
 10 11  1  0  0  0  0
 11 12  1  0  0  0  0
M  END
> <Index>
13677

> <PropertyFieldDistance>
nan

$$$$
12300766
BBcorina  12272117083D 1   1.00000     0.00000 
CORINA 4.3.0 0026  30.10.2019
 11 11  0  0  0  0  0  0  0  0999 V2000
  -37.8452    8.2860  -39.0938 C   0  0  0  0  0  0  0  0  0  0  0  0
  -38.2973    7.7154  -40.4395 C   0  0  0  0  0  0  0  0  0  0  0  0
  -37.3534    6.7390  -40.8841 O   0  0  0  0  0  0  0  0  0  0  0  0
  -37.6835    6.1408  -42.1392 C   0  0  0  0  0  0  0  0  0  0  0  0
  -36.6101    5.1171  -42.5144 C   0  0  0  0  0  0  0  0  0  0  0  0
  -37.0250    4.3871  -43.7945 C   0  0  0  0  0  0  0  0  0  0  0  0
  -35.9556    3.4605  -44.1936 N   0  0  0  0  0  0  0  0  0  0  0  0
  -34.6940    4.1834  -44.4108 C   0  0  0  0  0  0  0  0  0  0  0  0
  -34.3026    4.9154  -43.1244 C   0  0  0  0  0  0  0  0  0  0  0  0
  -35.3668    5.7882  -42.7358 O   0  0  0  0  0  0  0  0  0  0  0  0
  -36.4018    2.5727  -45.5854 X   0  0  0  0  0  0  0  0  0  0  0  0
  1  2  1  0  0  0  0
  2  3  1  0  0  0  0
  3  4  1  0  0  0  0
  4  5  1  0  0  0  0
  5  6  1  0  0  0  0
  5 10  1  0  0  0  0
  6  7  1  0  0  0  0
  7  8  1  0  0  0  0
  7 11  1  0  0  0  0
  8  9  1  0  0  0  0
  9 10  1  0  0  0  0
M  END
> <Index>
13682

> <PropertyFieldDistance>
nan

$$$$
15745996
BBcorina  12272117083D 1   1.00000     0.00000 
CORINA 4.3.0 0026  30.10.2019
  9  9  0  0  0  0  0  0  0  0999 V2000
  -36.1204    1.4787  -45.1823 O   0  0  0  0  0  0  0  0  0  0  0  0
  -36.1398    2.9076  -45.1745 C   0  0  0  0  0  0  0  0  0  0  0  0
  -34.7044    3.4372  -45.1853 C   0  0  0  0  0  0  0  0  0  0  0  0
  -33.9644    2.9303  -43.9458 C   0  0  0  0  0  0  0  0  0  0  0  0
  -34.6805    3.4237  -42.6870 C   0  0  0  0  0  0  0  0  0  0  0  0
  -36.1159    2.8942  -42.6761 C   0  0  0  0  0  0  0  0  0  0  0  0
  -36.8559    3.4010  -43.9157 C   0  0  0  0  0  0  0  0  0  0  0  0
  -36.8035    3.3679  -41.4675 N   0  0  0  0  0  0  0  0  0  0  0  0
  -36.9455    5.0720  -41.4714 X   0  0  0  0  0  0  0  0  0  0  0  0
  1  2  1  0  0  0  0
  2  3  1  0  0  0  0
  2  7  1  0  0  0  0
  3  4  1  0  0  0  0
  4  5  1  0  0  0  0
  5  6  1  0  0  0  0
  6  7  1  0  0  0  0
  6  8  1  0  0  0  0
  8  9  1  0  0  0  0
M  END
> <Index>
13689

> <PropertyFieldDistance>
nan

$$$$
11723352
BBcorina  12272117083D 1   1.00000     0.00000 
CORINA 4.3.0 0026  30.10.2019
 14 15  0  0  0  0  0  0  0  0999 V2000
  -35.9444   -0.4676  -47.1052 C   0  0  0  0  0  0  0  0  0  0  0  0
  -36.2961    0.5854  -46.0861 C   0  0  0  0  0  0  0  0  0  0  0  0
  -37.2521    0.5171  -45.2035 N   0  0  0  0  0  0  0  0  0  0  0  0
  -37.2740    1.5884  -44.4936 N   0  0  0  0  0  0  0  0  0  0  0  0
  -36.3252    2.4042  -44.8885 C   0  0  0  0  0  0  0  0  0  0  0  0
  -36.0411    3.6540  -44.3614 N   0  0  0  0  0  0  0  0  0  0  0  0
  -36.9585    3.9825  -43.2614 C   0  0  0  0  0  0  0  0  0  0  0  0
  -36.6645    5.3985  -42.7606 C   0  0  0  0  0  0  0  0  0  0  0  0
  -35.2658    5.4779  -42.3169 N   0  0  0  0  0  0  0  0  0  0  0  0
  -34.3480    5.1498  -43.4167 C   0  0  0  0  0  0  0  0  0  0  0  0
  -34.6420    3.7336  -43.9175 C   0  0  0  0  0  0  0  0  0  0  0  0
  -35.6748    1.7921  -45.9202 N   0  0  0  0  0  0  0  0  0  0  0  0
  -34.5437    2.3176  -46.6887 C   0  0  0  0  0  0  0  0  0  0  0  0
  -34.9159    7.0201  -41.6662 X   0  0  0  0  0  0  0  0  0  0  0  0
  1  2  1  0  0  0  0
  2  3  2  0  0  0  0
  2 12  1  0  0  0  0
  3  4  1  0  0  0  0
  4  5  2  0  0  0  0
  5  6  1  0  0  0  0
  5 12  1  0  0  0  0
  6  7  1  0  0  0  0
  6 11  1  0  0  0  0
  7  8  1  0  0  0  0
  8  9  1  0  0  0  0
  9 10  1  0  0  0  0
  9 14  1  0  0  0  0
 10 11  1  0  0  0  0
 12 13  1  0  0  0  0
M  END
> <Index>
13692

> <PropertyFieldDistance>
nan

$$$$
17600138
BBcorina  12272117083D 1   1.00000     0.00000 
CORINA 4.3.0 0026  30.10.2019
 15 17  0  0  0  0  0  0  0  0999 V2000
  -36.3336   -2.3073  -48.8854 O   0  0  0  0  0  0  0  0  0  0  0  0
  -36.6020   -1.8203  -47.5690 C   0  0  0  0  0  0  0  0  0  0  0  0
  -38.0936   -1.9711  -47.2637 C   0  0  0  0  0  0  0  0  0  0  0  0
  -38.3810   -1.4498  -45.8542 C   0  0  0  0  0  0  0  0  0  0  0  0
  -37.5685   -2.2541  -44.8375 C   0  0  0  0  0  0  0  0  0  0  0  0
  -36.0768   -2.1033  -45.1428 C   0  0  0  0  0  0  0  0  0  0  0  0
  -35.7895   -2.6247  -46.5522 C   0  0  0  0  0  0  0  0  0  0  0  0
  -36.2103   -0.3439  -47.4816 C   0  0  0  0  0  0  0  0  0  0  0  0
  -36.4976    0.1774  -46.0722 C   0  0  0  0  0  0  0  0  0  0  0  0
  -36.1059    1.6538  -45.9847 C   0  0  0  0  0  0  0  0  0  0  0  0
  -36.3933    2.1751  -44.5753 C   0  0  0  0  0  0  0  0  0  0  0  0
  -36.0173    3.5927  -44.4913 N   0  0  0  0  0  0  0  0  0  0  0  0
  -37.9893    0.0266  -45.7668 C   0  0  0  0  0  0  0  0  0  0  0  0
  -35.6851   -0.6269  -45.0554 C   0  0  0  0  0  0  0  0  0  0  0  0
  -36.3228    4.2163  -42.9288 X   0  0  0  0  0  0  0  0  0  0  0  0
  1  2  1  0  0  0  0
  2  3  1  0  0  0  0
  2  7  1  0  0  0  0
  2  8  1  0  0  0  0
  3  4  1  0  0  0  0
  4  5  1  0  0  0  0
  4 13  1  0  0  0  0
  5  6  1  0  0  0  0
  6  7  1  0  0  0  0
  6 14  1  0  0  0  0
  8  9  1  0  0  0  0
  9 10  1  0  0  0  0
  9 13  1  0  0  0  0
  9 14  1  0  0  0  0
 10 11  1  0  0  0  0
 11 12  1  0  0  0  0
 12 15  1  0  0  0  0
M  END
> <Index>
13724

> <PropertyFieldDistance>
nan

$$$$
15430508
BBcorina  12272117083D 1   1.00000     0.00000 
CORINA 4.3.0 0026  30.10.2019
 15 17  0  0  0  0  0  0  0  0999 V2000
  -32.8353    1.4341  -48.0045 C   0  0  0  0  0  0  0  0  0  0  0  0
  -34.3269    1.2832  -47.6993 C   0  0  0  0  0  0  0  0  0  0  0  0
  -35.1395    2.0875  -48.7161 C   0  0  0  0  0  0  0  0  0  0  0  0
  -36.6311    1.9367  -48.4109 C   0  0  0  0  0  0  0  0  0  0  0  0
  -37.0227    0.4602  -48.4982 C   0  0  0  0  0  0  0  0  0  0  0  0
  -36.2102   -0.3440  -47.4814 C   0  0  0  0  0  0  0  0  0  0  0  0
  -36.6019   -1.8204  -47.5688 C   0  0  0  0  0  0  0  0  0  0  0  0
  -34.7186   -0.1932  -47.7867 C   0  0  0  0  0  0  0  0  0  0  0  0
  -34.6142    1.8046  -46.2898 C   0  0  0  0  0  0  0  0  0  0  0  0
  -36.1059    1.6538  -45.9847 C   0  0  0  0  0  0  0  0  0  0  0  0
  -36.3933    2.1751  -44.5752 C   0  0  0  0  0  0  0  0  0  0  0  0
  -36.0173    3.5927  -44.4913 N   0  0  0  0  0  0  0  0  0  0  0  0
  -36.9184    2.4581  -47.0014 C   0  0  0  0  0  0  0  0  0  0  0  0
  -36.4976    0.1773  -46.0720 C   0  0  0  0  0  0  0  0  0  0  0  0
  -36.3230    4.2164  -42.9287 X   0  0  0  0  0  0  0  0  0  0  0  0
  1  2  1  0  0  0  0
  2  3  1  0  0  0  0
  2  8  1  0  0  0  0
  2  9  1  0  0  0  0
  3  4  1  0  0  0  0
  4  5  1  0  0  0  0
  4 13  1  0  0  0  0
  5  6  1  0  0  0  0
  6  7  1  0  0  0  0
  6  8  1  0  0  0  0
  6 14  1  0  0  0  0
  9 10  1  0  0  0  0
 10 11  1  0  0  0  0
 10 13  1  0  0  0  0
 10 14  1  0  0  0  0
 11 12  1  0  0  0  0
 12 15  1  0  0  0  0
M  END
> <Index>
13755

> <PropertyFieldDistance>
nan

$$$$
7965242
BBcorina  12272117083D 1   1.00000     0.00000 
CORINA 4.3.0 0026  30.10.2019
 10 11  0  0  0  0  0  0  0  0999 V2000
  -36.0242    3.9177  -44.5921 N   0  0  0  0  0  0  0  0  0  0  0  0
  -36.9556    4.0132  -43.4589 C   0  0  0  0  0  0  0  0  0  0  0  0
  -36.6389    5.2675  -42.6410 C   0  0  0  0  0  0  0  0  0  0  0  0
  -35.2856    5.2001  -42.1784 O   0  0  0  0  0  0  0  0  0  0  0  0
  -34.3345    5.0361  -43.2291 C   0  0  0  0  0  0  0  0  0  0  0  0
  -32.8773    5.1017  -42.7551 C   0  0  0  0  0  0  0  0  0  0  0  0
  -32.9521    6.6191  -42.9976 C   0  0  0  0  0  0  0  0  0  0  0  0
  -34.0645    6.3234  -44.0185 C   0  0  0  0  0  0  0  0  0  0  0  0
  -34.6342    3.8291  -44.1166 C   0  0  0  0  0  0  0  0  0  0  0  0
  -36.4143    2.5893  -45.5957 X   0  0  0  0  0  0  0  0  0  0  0  0
  1  2  1  0  0  0  0
  1  9  1  0  0  0  0
  1 10  1  0  0  0  0
  2  3  1  0  0  0  0
  3  4  1  0  0  0  0
  4  5  1  0  0  0  0
  5  6  1  0  0  0  0
  5  8  1  0  0  0  0
  5  9  1  0  0  0  0
  6  7  1  0  0  0  0
  7  8  1  0  0  0  0
M  END
> <Index>
13766

> <PropertyFieldDistance>
nan

$$$$
10391732
BBcorina  12272117083D 1   1.00000     0.00000 
CORINA 4.3.0 0026  30.10.2019
 10 10  0  0  0  0  0  0  0  0999 V2000
  -34.3762    7.6565  -43.9908 C   0  0  0  0  0  0  0  0  0  0  0  0
  -35.5414    6.8749  -43.7195 O   0  0  0  0  0  0  0  0  0  0  0  0
  -35.3534    5.8832  -42.7080 C   0  0  0  0  0  0  0  0  0  0  0  0
  -34.9467    6.5602  -41.3976 C   0  0  0  0  0  0  0  0  0  0  0  0
  -36.6586    5.1099  -42.5008 C   0  0  0  0  0  0  0  0  0  0  0  0
  -37.0290    4.3869  -43.7977 C   0  0  0  0  0  0  0  0  0  0  0  0
  -35.9479    3.4664  -44.1723 N   0  0  0  0  0  0  0  0  0  0  0  0
  -34.6958    4.1916  -44.4227 C   0  0  0  0  0  0  0  0  0  0  0  0
  -34.2559    4.9088  -43.1443 C   0  0  0  0  0  0  0  0  0  0  0  0
  -36.3899    2.5210  -45.5270 X   0  0  0  0  0  0  0  0  0  0  0  0
  1  2  1  0  0  0  0
  2  3  1  0  0  0  0
  3  4  1  0  0  0  0
  3  5  1  0  0  0  0
  3  9  1  0  0  0  0
  5  6  1  0  0  0  0
  6  7  1  0  0  0  0
  7  8  1  0  0  0  0
  7 10  1  0  0  0  0
  8  9  1  0  0  0  0
M  END
> <Index>
13775

> <PropertyFieldDistance>
nan

$$$$
16735768
BBcorina  12272117083D 1   1.00000     0.00000 
CORINA 4.3.0 0026  30.10.2019
 12 13  0  0  0  0  0  0  0  0999 V2000
  -37.3913    6.2839  -40.3480 O   0  0  0  0  0  0  0  0  0  0  0  0
  -37.8072    6.8283  -41.6020 C   0  0  0  0  0  0  0  0  0  0  0  0
  -38.6559    5.7976  -42.3488 C   0  0  0  0  0  0  0  0  0  0  0  0
  -37.8277    4.5347  -42.5955 C   0  0  0  0  0  0  0  0  0  0  0  0
  -36.5982    4.8889  -43.4341 C   0  0  0  0  0  0  0  0  0  0  0  0
  -35.7486    5.9156  -42.6815 C   0  0  0  0  0  0  0  0  0  0  0  0
  -34.5140    6.2622  -43.5176 C   0  0  0  0  0  0  0  0  0  0  0  0
  -33.7266    4.9801  -43.8036 C   0  0  0  0  0  0  0  0  0  0  0  0
  -34.6335    3.9785  -44.5221 C   0  0  0  0  0  0  0  0  0  0  0  0
  -35.8013    3.6814  -43.6825 N   0  0  0  0  0  0  0  0  0  0  0  0
  -36.5753    7.1797  -42.4390 C   0  0  0  0  0  0  0  0  0  0  0  0
  -36.7591    2.4480  -44.3793 X   0  0  0  0  0  0  0  0  0  0  0  0
  1  2  1  0  0  0  0
  2  3  1  0  0  0  0
  2 11  1  0  0  0  0
  3  4  1  0  0  0  0
  4  5  1  0  0  0  0
  5  6  1  0  0  0  0
  5 10  1  0  0  0  0
  6  7  1  0  0  0  0
  6 11  1  0  0  0  0
  7  8  1  0  0  0  0
  8  9  1  0  0  0  0
  9 10  1  0  0  0  0
 10 12  1  0  0  0  0
M  END
> <Index>
13776

> <PropertyFieldDistance>
nan

$$$$
14780042
BBcorina  12272117083D 1   1.00000     0.00000 
CORINA 4.3.0 0026  30.10.2019
 11 12  0  0  0  0  0  0  0  0999 V2000
  -37.5906    5.7698  -41.6976 C   0  0  0  0  0  0  0  0  0  0  0  0
  -36.5706    4.8250  -42.3362 C   0  0  0  0  0  0  0  0  0  0  0  0
  -37.0095    4.4889  -43.7635 C   0  0  0  0  0  0  0  0  0  0  0  0
  -36.0086    3.6127  -44.3880 N   0  0  0  0  0  0  0  0  0  0  0  0
  -34.6918    4.2640  -44.4241 C   0  0  0  0  0  0  0  0  0  0  0  0
  -34.2524    4.6000  -42.9971 C   0  0  0  0  0  0  0  0  0  0  0  0
  -35.2533    5.4762  -42.3726 N   0  0  0  0  0  0  0  0  0  0  0  0
  -34.8299    5.8830  -41.0260 C   0  0  0  0  0  0  0  0  0  0  0  0
  -34.6200    4.7789  -39.9878 C   0  0  0  0  0  0  0  0  0  0  0  0
  -33.4140    5.5054  -40.5864 C   0  0  0  0  0  0  0  0  0  0  0  0
  -36.5014    3.1392  -45.9555 X   0  0  0  0  0  0  0  0  0  0  0  0
  1  2  1  0  0  0  0
  2  3  1  0  0  0  0
  2  7  1  0  0  0  0
  3  4  1  0  0  0  0
  4  5  1  0  0  0  0
  4 11  1  0  0  0  0
  5  6  1  0  0  0  0
  6  7  1  0  0  0  0
  7  8  1  0  0  0  0
  8  9  1  0  0  0  0
  8 10  1  0  0  0  0
  9 10  1  0  0  0  0
M  END
> <Index>
13777

> <PropertyFieldDistance>
nan

$$$$
15729996
BBcorina  12272117083D 1   1.00000     0.00000 
CORINA 4.3.0 0026  30.10.2019
  9  9  0  0  0  0  0  0  0  0999 V2000
  -31.8592    4.8769  -43.1459 C   0  0  0  0  0  0  0  0  0  0  0  0
  -33.0478    5.6303  -43.3937 O   0  0  0  0  0  0  0  0  0  0  0  0
  -34.2559    4.9088  -43.1443 C   0  0  0  0  0  0  0  0  0  0  0  0
  -35.3534    5.8832  -42.7079 C   0  0  0  0  0  0  0  0  0  0  0  0
  -36.6587    5.1099  -42.5007 C   0  0  0  0  0  0  0  0  0  0  0  0
  -37.0291    4.3869  -43.7977 C   0  0  0  0  0  0  0  0  0  0  0  0
  -35.9479    3.4664  -44.1723 N   0  0  0  0  0  0  0  0  0  0  0  0
  -34.6958    4.1916  -44.4226 C   0  0  0  0  0  0  0  0  0  0  0  0
  -36.3899    2.5210  -45.5270 X   0  0  0  0  0  0  0  0  0  0  0  0
  1  2  1  0  0  0  0
  2  3  1  0  0  0  0
  3  4  1  0  0  0  0
  3  8  1  0  0  0  0
  4  5  1  0  0  0  0
  5  6  1  0  0  0  0
  6  7  1  0  0  0  0
  7  8  1  0  0  0  0
  7  9  1  0  0  0  0
M  END
> <Index>
13781

> <PropertyFieldDistance>
nan

$$$$
7786970
BBcorina  12272117083D 1   1.00000     0.00000 
CORINA 4.3.0 0026  30.10.2019
 14 15  0  0  0  0  0  0  0  0999 V2000
  -35.4003    5.6600  -42.5688 N   0  0  0  0  0  0  0  0  0  0  0  0
  -36.5242    4.7470  -42.3051 C   0  0  0  0  0  0  0  0  0  0  0  0
  -37.0543    4.2258  -43.6440 C   0  0  0  0  0  0  0  0  0  0  0  0
  -35.9515    3.7092  -44.4494 N   0  0  0  0  0  0  0  0  0  0  0  0
  -36.2600    2.8093  -45.5636 C   0  0  0  0  0  0  0  0  0  0  0  0
  -36.2463    1.3616  -45.0686 C   0  0  0  0  0  0  0  0  0  0  0  0
  -36.6740    0.4130  -46.2022 C   0  0  0  0  0  0  0  0  0  0  0  0
  -35.4859   -0.5387  -46.4522 C   0  0  0  0  0  0  0  0  0  0  0  0
  -34.7010   -0.5253  -45.1169 C   0  0  0  0  0  0  0  0  0  0  0  0
  -34.8135    0.9536  -44.6681 C   0  0  0  0  0  0  0  0  0  0  0  0
  -34.6729    4.0252  -44.2187 C   0  0  0  0  0  0  0  0  0  0  0  0
  -33.8217    3.5798  -44.9590 O   0  0  0  0  0  0  0  0  0  0  0  0
  -34.2464    4.9084  -43.0805 C   0  0  0  0  0  0  0  0  0  0  0  0
  -34.9836    6.5408  -41.1636 X   0  0  0  0  0  0  0  0  0  0  0  0
  1  2  1  0  0  0  0
  1 13  1  0  0  0  0
  1 14  1  0  0  0  0
  2  3  1  0  0  0  0
  3  4  1  0  0  0  0
  4  5  1  0  0  0  0
  4 11  1  0  0  0  0
  5  6  1  0  0  0  0
  6  7  1  0  0  0  0
  6 10  1  0  0  0  0
  7  8  1  0  0  0  0
  8  9  1  0  0  0  0
  9 10  1  0  0  0  0
 11 12  2  0  0  0  0
 11 13  1  0  0  0  0
M  END
> <Index>
13785

> <PropertyFieldDistance>
nan

$$$$
7049138
BBcorina  12272117083D 1   1.00000     0.00000 
CORINA 4.3.0 0026  30.10.2019
  9  9  0  0  0  0  0  0  0  0999 V2000
  -32.6304    5.2401  -42.2030 C   0  0  0  0  0  0  0  0  0  0  0  0
  -34.1037    5.6507  -42.1621 C   0  0  0  0  0  0  0  0  0  0  0  0
  -34.9804    4.4370  -42.4773 C   0  0  0  0  0  0  0  0  0  0  0  0
  -34.7033    3.3093  -41.4810 C   0  0  0  0  0  0  0  0  0  0  0  0
  -36.4718    4.8295  -42.4413 C   0  0  0  0  0  0  0  0  0  0  0  0
  -36.9947    4.5502  -43.8666 C   0  0  0  0  0  0  0  0  0  0  0  0
  -36.0637    3.5298  -44.4137 N   0  0  0  0  0  0  0  0  0  0  0  0
  -34.7276    3.9536  -43.9215 C   0  0  0  0  0  0  0  0  0  0  0  0
  -36.1098    3.5119  -46.1229 X   0  0  0  0  0  0  0  0  0  0  0  0
  1  2  1  0  0  0  0
  2  3  1  0  0  0  0
  3  4  1  0  0  0  0
  3  5  1  0  0  0  0
  3  8  1  0  0  0  0
  5  6  1  0  0  0  0
  6  7  1  0  0  0  0
  7  8  1  0  0  0  0
  7  9  1  0  0  0  0
M  END
> <Index>
13790

> <PropertyFieldDistance>
nan

$$$$
10434880
BBcorina  12272117083D 1   1.00000     0.00000 
CORINA 4.3.0 0026  30.10.2019
 13 14  0  0  0  0  0  0  0  0999 V2000
  -38.7364    5.8858  -43.1262 C   0  0  0  0  0  0  0  0  0  0  0  0
  -37.4486    5.0699  -42.9960 C   0  0  0  0  0  0  0  0  0  0  0  0
  -37.2066    4.3597  -44.2500 C   0  0  0  0  0  0  0  0  0  0  0  0
  -35.9906    3.5164  -44.1898 N   0  0  0  0  0  0  0  0  0  0  0  0
  -34.8165    4.3292  -44.3941 C   0  0  0  0  0  0  0  0  0  0  0  0
  -34.1930    4.8086  -43.0709 C   0  0  0  0  0  0  0  0  0  0  0  0
  -35.2083    5.2398  -42.0813 N   0  0  0  0  0  0  0  0  0  0  0  0
  -36.2864    6.0194  -42.6391 C   0  0  0  0  0  0  0  0  0  0  0  0
  -34.5800    5.9413  -40.9539 C   0  0  0  0  0  0  0  0  0  0  0  0
  -35.5361    6.1954  -39.7765 C   0  0  0  0  0  0  0  0  0  0  0  0
  -34.3614    5.8431  -38.8488 C   0  0  0  0  0  0  0  0  0  0  0  0
  -33.7934    5.0138  -40.0126 C   0  0  0  0  0  0  0  0  0  0  0  0
  -36.0661    2.2497  -45.3361 X   0  0  0  0  0  0  0  0  0  0  0  0
  1  2  1  0  0  0  0
  2  3  1  0  0  0  0
  2  8  1  0  0  0  0
  3  4  1  0  0  0  0
  4  5  1  0  0  0  0
  4 13  1  0  0  0  0
  5  6  1  0  0  0  0
  6  7  1  0  0  0  0
  7  8  1  0  0  0  0
  7  9  1  0  0  0  0
  9 10  1  0  0  0  0
  9 12  1  0  0  0  0
 10 11  1  0  0  0  0
 11 12  1  0  0  0  0
M  END
> <Index>
13807

> <PropertyFieldDistance>
nan

$$$$
10549564
BBcorina  12272117083D 1   1.00000     0.00000 
CORINA 4.3.0 0026  30.10.2019
  8  8  0  0  0  0  0  0  0  0999 V2000
  -38.8829    3.3454  -44.8769 F   0  0  0  0  0  0  0  0  0  0  0  0
  -38.3655    3.7175  -43.6315 C   0  0  0  0  0  0  0  0  0  0  0  0
  -37.0530    4.4782  -43.8312 C   0  0  0  0  0  0  0  0  0  0  0  0
  -36.4385    4.8666  -42.4634 C   0  0  0  0  0  0  0  0  0  0  0  0
  -34.9374    5.0165  -42.8253 C   0  0  0  0  0  0  0  0  0  0  0  0
  -34.7234    3.9144  -43.8840 C   0  0  0  0  0  0  0  0  0  0  0  0
  -36.0427    3.6040  -44.4644 N   0  0  0  0  0  0  0  0  0  0  0  0
  -36.0299    3.8118  -46.1617 X   0  0  0  0  0  0  0  0  0  0  0  0
  1  2  1  0  0  0  0
  2  3  1  0  0  0  0
  3  4  1  0  0  0  0
  3  7  1  0  0  0  0
  4  5  1  0  0  0  0
  5  6  1  0  0  0  0
  6  7  1  0  0  0  0
  7  8  1  0  0  0  0
M  END
> <Index>
13809

> <PropertyFieldDistance>
nan

$$$$
12215810
BBcorina  12272117083D 1   1.00000     0.00000 
CORINA 4.3.0 0026  30.10.2019
 10 10  0  0  0  0  0  0  0  0999 V2000
  -39.9702    4.5970  -45.9482 C   0  0  0  0  0  0  0  0  0  0  0  0
  -38.8519    4.0161  -45.2744 O   0  0  0  0  0  0  0  0  0  0  0  0
  -38.2521    4.8716  -44.2997 C   0  0  0  0  0  0  0  0  0  0  0  0
  -37.0719    4.1505  -43.6453 C   0  0  0  0  0  0  0  0  0  0  0  0
  -36.4313    5.0387  -42.5571 C   0  0  0  0  0  0  0  0  0  0  0  0
  -34.9157    4.7713  -42.6624 C   0  0  0  0  0  0  0  0  0  0  0  0
  -34.7681    3.7441  -43.8055 C   0  0  0  0  0  0  0  0  0  0  0  0
  -35.9863    3.9297  -44.6351 N   0  0  0  0  0  0  0  0  0  0  0  0
  -36.2506    2.7506  -45.4439 N   0  0  0  0  0  0  0  0  0  0  0  0
  -36.2510    3.1375  -47.1096 X   0  0  0  0  0  0  0  0  0  0  0  0
  1  2  1  0  0  0  0
  2  3  1  0  0  0  0
  3  4  1  0  0  0  0
  4  5  1  0  0  0  0
  4  8  1  0  0  0  0
  5  6  1  0  0  0  0
  6  7  1  0  0  0  0
  7  8  1  0  0  0  0
  8  9  1  0  0  0  0
  9 10  1  0  0  0  0
M  END
> <Index>
13813

> <PropertyFieldDistance>
nan

$$$$
10211526
BBcorina  12272117083D 1   1.00000     0.00000 
CORINA 4.3.0 0026  30.10.2019
 11 11  0  0  0  0  0  0  0  0999 V2000
  -33.1381    7.6770  -40.0656 C   0  0  0  0  0  0  0  0  0  0  0  0
  -33.4572    6.4119  -40.8648 C   0  0  0  0  0  0  0  0  0  0  0  0
  -34.9272    6.4335  -41.2883 C   0  0  0  0  0  0  0  0  0  0  0  0
  -35.2463    5.1684  -42.0875 C   0  0  0  0  0  0  0  0  0  0  0  0
  -35.1137    4.0236  -41.2426 O   0  0  0  0  0  0  0  0  0  0  0  0
  -36.6796    5.2477  -42.6204 C   0  0  0  0  0  0  0  0  0  0  0  0
  -36.9723    4.0084  -43.4693 C   0  0  0  0  0  0  0  0  0  0  0  0
  -36.0194    3.9412  -44.5845 N   0  0  0  0  0  0  0  0  0  0  0  0
  -34.6397    3.8168  -44.0972 C   0  0  0  0  0  0  0  0  0  0  0  0
  -34.2763    5.0495  -43.2663 C   0  0  0  0  0  0  0  0  0  0  0  0
  -36.4111    2.6614  -45.6489 X   0  0  0  0  0  0  0  0  0  0  0  0
  1  2  1  0  0  0  0
  2  3  1  0  0  0  0
  3  4  1  0  0  0  0
  4  5  1  0  0  0  0
  4  6  1  0  0  0  0
  4 10  1  0  0  0  0
  6  7  1  0  0  0  0
  7  8  1  0  0  0  0
  8  9  1  0  0  0  0
  8 11  1  0  0  0  0
  9 10  1  0  0  0  0
M  END
> <Index>
13815

> <PropertyFieldDistance>
nan

$$$$
10176772
BBcorina  12272117083D 1   1.00000     0.00000 
CORINA 4.3.0 0026  30.10.2019
 16 16  0  0  0  0  0  0  0  0999 V2000
  -38.9024    0.1963  -46.7671 F   0  0  0  0  0  0  0  0  0  0  0  0
  -38.0231   -0.5167  -45.9451 C   0  0  0  0  0  0  0  0  0  0  0  0
  -37.7592   -1.7658  -46.5172 F   0  0  0  0  0  0  0  0  0  0  0  0
  -38.6036   -0.6944  -44.6846 F   0  0  0  0  0  0  0  0  0  0  0  0
  -36.7154    0.2639  -45.7989 C   0  0  0  0  0  0  0  0  0  0  0  0
  -37.0041    1.6299  -45.1733 C   0  0  0  0  0  0  0  0  0  0  0  0
  -35.7160    2.3988  -45.0293 C   0  0  0  0  0  0  0  0  0  0  0  0
  -34.6701    1.9030  -45.3915 O   0  0  0  0  0  0  0  0  0  0  0  0
  -35.7263    3.6375  -44.4981 N   0  0  0  0  0  0  0  0  0  0  0  0
  -36.9862    4.2538  -44.0605 C   0  0  0  0  0  0  0  0  0  0  0  0
  -36.8265    4.7091  -42.6020 C   0  0  0  0  0  0  0  0  0  0  0  0
  -35.6066    5.6264  -42.4906 C   0  0  0  0  0  0  0  0  0  0  0  0
  -34.3478    4.8553  -42.8946 C   0  0  0  0  0  0  0  0  0  0  0  0
  -34.4786    4.3994  -44.3513 C   0  0  0  0  0  0  0  0  0  0  0  0
  -33.1731    5.7265  -42.7571 N   0  0  0  0  0  0  0  0  0  0  0  0
  -33.3155    7.1091  -43.7533 X   0  0  0  0  0  0  0  0  0  0  0  0
  1  2  1  0  0  0  0
  2  3  1  0  0  0  0
  2  4  1  0  0  0  0
  2  5  1  0  0  0  0
  5  6  1  0  0  0  0
  6  7  1  0  0  0  0
  7  8  2  0  0  0  0
  7  9  1  0  0  0  0
  9 10  1  0  0  0  0
  9 14  1  0  0  0  0
 10 11  1  0  0  0  0
 11 12  1  0  0  0  0
 12 13  1  0  0  0  0
 13 14  1  0  0  0  0
 13 15  1  0  0  0  0
 15 16  1  0  0  0  0
M  END
> <Index>
13839

> <PropertyFieldDistance>
nan

$$$$
10954502
BBcorina  12272117083D 1   1.00000     0.00000 
CORINA 4.3.0 0026  30.10.2019
  6  6  0  0  0  0  0  0  0  0999 V2000
  -36.0574    3.5737  -44.4758 N   0  0  0  0  0  0  0  0  0  0  0  0
  -37.0214    4.4944  -43.8278 C   0  0  0  0  0  0  0  0  0  0  0  0
  -36.4100    4.8405  -42.4898 C   0  0  0  0  0  0  0  0  0  0  0  0
  -35.1343    4.5349  -42.5031 C   0  0  0  0  0  0  0  0  0  0  0  0
  -34.7689    3.9545  -43.8496 C   0  0  0  0  0  0  0  0  0  0  0  0
  -36.0140    3.8227  -46.1670 X   0  0  0  0  0  0  0  0  0  0  0  0
  1  2  1  0  0  0  0
  1  5  1  0  0  0  0
  1  6  1  0  0  0  0
  2  3  1  0  0  0  0
  3  4  2  0  0  0  0
  4  5  1  0  0  0  0
M  END
> <Index>
13851

> <PropertyFieldDistance>
nan

$$$$
14934146
BBcorina  12272117083D 1   1.00000     0.00000 
CORINA 4.3.0 0026  30.10.2019
 10 10  0  0  0  0  0  0  0  0999 V2000
  -35.1044    3.9406  -41.1840 C   0  0  0  0  0  0  0  0  0  0  0  0
  -35.2461    5.1675  -42.0870 C   0  0  0  0  0  0  0  0  0  0  0  0
  -34.9268    6.4322  -41.2874 C   0  0  0  0  0  0  0  0  0  0  0  0
  -33.5892    6.3565  -40.7902 O   0  0  0  0  0  0  0  0  0  0  0  0
  -36.6793    5.2476  -42.6202 C   0  0  0  0  0  0  0  0  0  0  0  0
  -36.9723    4.0087  -43.4695 C   0  0  0  0  0  0  0  0  0  0  0  0
  -36.0192    3.9414  -44.5845 N   0  0  0  0  0  0  0  0  0  0  0  0
  -34.6396    3.8164  -44.0970 C   0  0  0  0  0  0  0  0  0  0  0  0
  -34.2769    5.0496  -43.2665 C   0  0  0  0  0  0  0  0  0  0  0  0
  -36.4110    2.6622  -45.6494 X   0  0  0  0  0  0  0  0  0  0  0  0
  1  2  1  0  0  0  0
  2  3  1  0  0  0  0
  2  5  1  0  0  0  0
  2  9  1  0  0  0  0
  3  4  1  0  0  0  0
  5  6  1  0  0  0  0
  6  7  1  0  0  0  0
  7  8  1  0  0  0  0
  7 10  1  0  0  0  0
  8  9  1  0  0  0  0
M  END
> <Index>
13852

> <PropertyFieldDistance>
nan

$$$$
12110726
BBcorina  12272117083D 1   1.00000     0.00000 
CORINA 4.3.0 0026  30.10.2019
 13 14  0  0  0  0  0  0  0  0999 V2000
  -34.0532    5.9238  -42.8790 O   0  0  0  0  0  0  0  0  0  0  0  0
  -34.9206    4.8129  -42.6432 C   0  0  0  0  0  0  0  0  0  0  0  0
  -36.3990    5.2597  -42.7112 C   0  0  0  0  0  0  0  0  0  0  0  0
  -37.0862    4.0740  -43.4342 C   0  0  0  0  0  0  0  0  0  0  0  0
  -36.0751    3.6565  -44.4390 N   0  0  0  0  0  0  0  0  0  0  0  0
  -34.7647    3.7662  -43.7619 C   0  0  0  0  0  0  0  0  0  0  0  0
  -36.3201    2.2808  -44.8920 C   0  0  0  0  0  0  0  0  0  0  0  0
  -37.7313    2.1784  -45.4773 C   0  0  0  0  0  0  0  0  0  0  0  0
  -37.9586    0.7590  -46.0026 C   0  0  0  0  0  0  0  0  0  0  0  0
  -36.9585    0.4510  -47.0328 N   0  0  0  0  0  0  0  0  0  0  0  0
  -35.5978    0.4967  -46.4825 C   0  0  0  0  0  0  0  0  0  0  0  0
  -35.2990    1.9076  -45.9703 C   0  0  0  0  0  0  0  0  0  0  0  0
  -37.2748   -1.0639  -47.7603 X   0  0  0  0  0  0  0  0  0  0  0  0
  1  2  1  0  0  0  0
  2  3  1  0  0  0  0
  2  6  1  0  0  0  0
  3  4  1  0  0  0  0
  4  5  1  0  0  0  0
  5  6  1  0  0  0  0
  5  7  1  0  0  0  0
  7  8  1  0  0  0  0
  7 12  1  0  0  0  0
  8  9  1  0  0  0  0
  9 10  1  0  0  0  0
 10 11  1  0  0  0  0
 10 13  1  0  0  0  0
 11 12  1  0  0  0  0
M  END
> <Index>
13854

> <PropertyFieldDistance>
nan

$$$$
12303736
BBcorina  12272117083D 1   1.00000     0.00000 
CORINA 4.3.0 0026  30.10.2019
 13 14  0  0  0  0  0  0  0  0999 V2000
  -33.0350    5.6478  -43.5182 N   0  0  0  0  0  0  0  0  0  0  0  0
  -34.2609    4.9308  -43.1426 C   0  0  0  0  0  0  0  0  0  0  0  0
  -35.3559    5.9417  -42.8006 C   0  0  0  0  0  0  0  0  0  0  0  0
  -36.6793    5.2311  -42.6859 C   0  0  0  0  0  0  0  0  0  0  0  0
  -37.6231    5.6642  -41.7762 C   0  0  0  0  0  0  0  0  0  0  0  0
  -38.8373    5.0093  -41.6738 C   0  0  0  0  0  0  0  0  0  0  0  0
  -39.1094    3.9206  -42.4813 C   0  0  0  0  0  0  0  0  0  0  0  0
  -38.1690    3.4829  -43.3939 C   0  0  0  0  0  0  0  0  0  0  0  0
  -36.9495    4.1377  -43.4988 C   0  0  0  0  0  0  0  0  0  0  0  0
  -35.9934    3.7004  -44.4205 N   0  0  0  0  0  0  0  0  0  0  0  0
  -34.7042    4.0636  -44.2899 C   0  0  0  0  0  0  0  0  0  0  0  0
  -33.8900    3.6878  -45.1066 O   0  0  0  0  0  0  0  0  0  0  0  0
  -33.3292    6.7301  -44.8090 X   0  0  0  0  0  0  0  0  0  0  0  0
  1  2  1  0  0  0  0
  1 13  1  0  0  0  0
  2  3  1  0  0  0  0
  2 11  1  0  0  0  0
  3  4  1  0  0  0  0
  4  5  2  0  0  0  0
  4  9  1  0  0  0  0
  5  6  1  0  0  0  0
  6  7  2  0  0  0  0
  7  8  1  0  0  0  0
  8  9  2  0  0  0  0
  9 10  1  0  0  0  0
 10 11  1  0  0  0  0
 11 12  2  0  0  0  0
M  END
> <Index>
13855

> <PropertyFieldDistance>
nan

$$$$
12056416
BBcorina  12272117083D 1   1.00000     0.00000 
CORINA 4.3.0 0026  30.10.2019
 10 10  0  0  0  0  0  0  0  0999 V2000
  -30.6531    5.4041  -43.9705 F   0  0  0  0  0  0  0  0  0  0  0  0
  -31.8353    4.6970  -43.7261 C   0  0  0  0  0  0  0  0  0  0  0  0
  -32.9630    5.6821  -43.4116 C   0  0  0  0  0  0  0  0  0  0  0  0
  -34.2559    4.9087  -43.1443 C   0  0  0  0  0  0  0  0  0  0  0  0
  -35.3534    5.8831  -42.7079 C   0  0  0  0  0  0  0  0  0  0  0  0
  -36.6587    5.1099  -42.5007 C   0  0  0  0  0  0  0  0  0  0  0  0
  -37.0290    4.3869  -43.7978 C   0  0  0  0  0  0  0  0  0  0  0  0
  -35.9479    3.4664  -44.1723 N   0  0  0  0  0  0  0  0  0  0  0  0
  -34.6958    4.1917  -44.4226 C   0  0  0  0  0  0  0  0  0  0  0  0
  -36.3899    2.5211  -45.5269 X   0  0  0  0  0  0  0  0  0  0  0  0
  1  2  1  0  0  0  0
  2  3  1  0  0  0  0
  3  4  1  0  0  0  0
  4  5  1  0  0  0  0
  4  9  1  0  0  0  0
  5  6  1  0  0  0  0
  6  7  1  0  0  0  0
  7  8  1  0  0  0  0
  8  9  1  0  0  0  0
  8 10  1  0  0  0  0
M  END
> <Index>
13856

> <PropertyFieldDistance>
nan

$$$$
8930332
BBcorina  12272117083D 1   1.00000     0.00000 
CORINA 4.3.0 0026  30.10.2019
 16 17  0  0  0  0  0  0  0  0999 V2000
  -35.7197    1.5931  -45.7441 C   0  0  0  0  0  0  0  0  0  0  0  0
  -36.6253    2.7528  -45.3248 C   0  0  0  0  0  0  0  0  0  0  0  0
  -36.1093    3.3546  -44.0880 N   0  0  0  0  0  0  0  0  0  0  0  0
  -37.0733    4.3107  -43.5255 C   0  0  0  0  0  0  0  0  0  0  0  0
  -36.5344    4.8544  -42.2003 C   0  0  0  0  0  0  0  0  0  0  0  0
  -35.2330    5.4970  -42.4304 N   0  0  0  0  0  0  0  0  0  0  0  0
  -34.2690    4.5410  -42.9929 C   0  0  0  0  0  0  0  0  0  0  0  0
  -34.8079    3.9972  -44.3181 C   0  0  0  0  0  0  0  0  0  0  0  0
  -34.7424    6.0692  -41.2545 C   0  0  0  0  0  0  0  0  0  0  0  0
  -35.4770    5.9799  -40.0784 C   0  0  0  0  0  0  0  0  0  0  0  0
  -34.9952    6.5512  -38.9162 C   0  0  0  0  0  0  0  0  0  0  0  0
  -33.7771    7.2026  -38.9165 C   0  0  0  0  0  0  0  0  0  0  0  0
  -33.0373    7.2955  -40.0894 C   0  0  0  0  0  0  0  0  0  0  0  0
  -31.8086    7.9598  -40.0903 N   0  0  0  0  0  0  0  0  0  0  0  0
  -33.5208    6.7281  -41.2596 C   0  0  0  0  0  0  0  0  0  0  0  0
  -31.2136    8.6588  -38.6476 X   0  0  0  0  0  0  0  0  0  0  0  0
  1  2  1  0  0  0  0
  2  3  1  0  0  0  0
  3  4  1  0  0  0  0
  3  8  1  0  0  0  0
  4  5  1  0  0  0  0
  5  6  1  0  0  0  0
  6  7  1  0  0  0  0
  6  9  1  0  0  0  0
  7  8  1  0  0  0  0
  9 10  2  0  0  0  0
  9 15  1  0  0  0  0
 10 11  1  0  0  0  0
 11 12  2  0  0  0  0
 12 13  1  0  0  0  0
 13 14  1  0  0  0  0
 13 15  2  0  0  0  0
 14 16  1  0  0  0  0
M  END
> <Index>
13903

> <PropertyFieldDistance>
nan

$$$$
10976468
BBcorina  12272117083D 1   1.00000     0.00000 
CORINA 4.3.0 0026  30.10.2019
 16 17  0  0  0  0  0  0  0  0999 V2000
  -32.2270    0.1848  -47.1939 Br  0  0  0  0  0  0  0  0  0  0  0  0
  -33.9167    1.0334  -47.2207 C   0  0  0  0  0  0  0  0  0  0  0  0
  -34.5026    1.3702  -48.4274 C   0  0  0  0  0  0  0  0  0  0  0  0
  -35.7376    1.9910  -48.4465 C   0  0  0  0  0  0  0  0  0  0  0  0
  -36.3866    2.2756  -47.2597 C   0  0  0  0  0  0  0  0  0  0  0  0
  -35.8041    1.9335  -46.0534 C   0  0  0  0  0  0  0  0  0  0  0  0
  -36.5153    2.2379  -44.7601 C   0  0  0  0  0  0  0  0  0  0  0  0
  -36.1305    3.5765  -44.2930 N   0  0  0  0  0  0  0  0  0  0  0  0
  -36.9747    4.0050  -43.1705 C   0  0  0  0  0  0  0  0  0  0  0  0
  -36.6444    5.4542  -42.8062 C   0  0  0  0  0  0  0  0  0  0  0  0
  -35.1650    5.5548  -42.4241 C   0  0  0  0  0  0  0  0  0  0  0  0
  -34.3092    5.0572  -43.5922 C   0  0  0  0  0  0  0  0  0  0  0  0
  -34.7073    3.6195  -43.9337 C   0  0  0  0  0  0  0  0  0  0  0  0
  -34.8281    6.9541  -42.1297 N   0  0  0  0  0  0  0  0  0  0  0  0
  -34.5669    1.3181  -46.0331 C   0  0  0  0  0  0  0  0  0  0  0  0
  -35.2135    7.9682  -43.4515 X   0  0  0  0  0  0  0  0  0  0  0  0
  1  2  1  0  0  0  0
  2  3  2  0  0  0  0
  2 15  1  0  0  0  0
  3  4  1  0  0  0  0
  4  5  2  0  0  0  0
  5  6  1  0  0  0  0
  6  7  1  0  0  0  0
  6 15  2  0  0  0  0
  7  8  1  0  0  0  0
  8  9  1  0  0  0  0
  8 13  1  0  0  0  0
  9 10  1  0  0  0  0
 10 11  1  0  0  0  0
 11 12  1  0  0  0  0
 11 14  1  0  0  0  0
 12 13  1  0  0  0  0
 14 16  1  0  0  0  0
M  END
> <Index>
13908

> <PropertyFieldDistance>
nan

$$$$
7117256
BBcorina  12272117083D 1   1.00000     0.00000 
CORINA 4.3.0 0026  30.10.2019
 16 17  0  0  0  0  0  0  0  0999 V2000
  -32.1758   -0.9587  -47.4845 Br  0  0  0  0  0  0  0  0  0  0  0  0
  -33.5551    0.0979  -46.7382 C   0  0  0  0  0  0  0  0  0  0  0  0
  -34.2526   -0.3550  -45.6329 C   0  0  0  0  0  0  0  0  0  0  0  0
  -35.2603    0.4179  -45.0874 C   0  0  0  0  0  0  0  0  0  0  0  0
  -35.5713    1.6434  -45.6464 C   0  0  0  0  0  0  0  0  0  0  0  0
  -36.6704    2.4855  -45.0517 C   0  0  0  0  0  0  0  0  0  0  0  0
  -36.1068    3.3727  -44.0255 N   0  0  0  0  0  0  0  0  0  0  0  0
  -37.0941    4.3694  -43.5915 C   0  0  0  0  0  0  0  0  0  0  0  0
  -36.5244    5.1793  -42.4247 C   0  0  0  0  0  0  0  0  0  0  0  0
  -35.2346    5.8725  -42.8725 C   0  0  0  0  0  0  0  0  0  0  0  0
  -34.2413    4.8164  -43.3649 C   0  0  0  0  0  0  0  0  0  0  0  0
  -34.8772    4.0170  -44.5044 C   0  0  0  0  0  0  0  0  0  0  0  0
  -34.6519    6.6043  -41.7399 N   0  0  0  0  0  0  0  0  0  0  0  0
  -34.8781    2.0942  -46.7543 C   0  0  0  0  0  0  0  0  0  0  0  0
  -33.8666    1.3243  -47.2972 C   0  0  0  0  0  0  0  0  0  0  0  0
  -34.1918    5.5326  -40.4893 X   0  0  0  0  0  0  0  0  0  0  0  0
  1  2  1  0  0  0  0
  2  3  2  0  0  0  0
  2 15  1  0  0  0  0
  3  4  1  0  0  0  0
  4  5  2  0  0  0  0
  5  6  1  0  0  0  0
  5 14  1  0  0  0  0
  6  7  1  0  0  0  0
  7  8  1  0  0  0  0
  7 12  1  0  0  0  0
  8  9  1  0  0  0  0
  9 10  1  0  0  0  0
 10 11  1  0  0  0  0
 10 13  1  0  0  0  0
 11 12  1  0  0  0  0
 13 16  1  0  0  0  0
 14 15  2  0  0  0  0
M  END
> <Index>
13909

> <PropertyFieldDistance>
nan

$$$$
10229028
BBcorina  12272117083D 1   1.00000     0.00000 
CORINA 4.3.0 0026  30.10.2019
 15 16  0  0  0  0  0  0  0  0999 V2000
  -36.3410    2.3418  -44.9173 C   0  0  0  0  0  0  0  0  0  0  0  0
  -36.0390    3.6659  -44.3572 N   0  0  0  0  0  0  0  0  0  0  0  0
  -36.9565    3.9940  -43.2572 C   0  0  0  0  0  0  0  0  0  0  0  0
  -36.6612    5.4094  -42.7551 C   0  0  0  0  0  0  0  0  0  0  0  0
  -35.2624    5.4869  -42.3113 N   0  0  0  0  0  0  0  0  0  0  0  0
  -34.3448    5.1588  -43.4113 C   0  0  0  0  0  0  0  0  0  0  0  0
  -34.6402    3.7435  -43.9134 C   0  0  0  0  0  0  0  0  0  0  0  0
  -33.7276    3.4189  -45.0679 C   0  0  0  0  0  0  0  0  0  0  0  0
  -34.1607    3.6106  -46.3662 C   0  0  0  0  0  0  0  0  0  0  0  0
  -33.3220    3.3169  -47.4254 C   0  0  0  0  0  0  0  0  0  0  0  0
  -32.0536    2.8224  -47.1869 C   0  0  0  0  0  0  0  0  0  0  0  0
  -31.6211    2.6253  -45.8887 C   0  0  0  0  0  0  0  0  0  0  0  0
  -32.4580    2.9235  -44.8285 C   0  0  0  0  0  0  0  0  0  0  0  0
  -31.9159    2.6757  -43.1980 Cl  0  0  0  0  0  0  0  0  0  0  0  0
  -34.9109    7.0283  -41.6593 X   0  0  0  0  0  0  0  0  0  0  0  0
  1  2  1  0  0  0  0
  2  3  1  0  0  0  0
  2  7  1  0  0  0  0
  3  4  1  0  0  0  0
  4  5  1  0  0  0  0
  5  6  1  0  0  0  0
  5 15  1  0  0  0  0
  6  7  1  0  0  0  0
  7  8  1  0  0  0  0
  8  9  2  0  0  0  0
  8 13  1  0  0  0  0
  9 10  1  0  0  0  0
 10 11  2  0  0  0  0
 11 12  1  0  0  0  0
 12 13  2  0  0  0  0
 13 14  1  0  0  0  0
M  END
> <Index>
13911

> <PropertyFieldDistance>
nan

$$$$
7049098
BBcorina  12272117083D 1   1.00000     0.00000 
CORINA 4.3.0 0026  30.10.2019
  9 10  0  0  0  0  0  0  0  0999 V2000
  -36.0635    3.5316  -44.4167 N   0  0  0  0  0  0  0  0  0  0  0  0
  -36.9980    4.5478  -43.8659 C   0  0  0  0  0  0  0  0  0  0  0  0
  -36.4708    4.8317  -42.4403 C   0  0  0  0  0  0  0  0  0  0  0  0
  -34.9880    4.4438  -42.4902 C   0  0  0  0  0  0  0  0  0  0  0  0
  -34.0113    5.4944  -41.9640 C   0  0  0  0  0  0  0  0  0  0  0  0
  -34.1198    4.7868  -40.6009 C   0  0  0  0  0  0  0  0  0  0  0  0
  -34.5100    3.5147  -41.3753 C   0  0  0  0  0  0  0  0  0  0  0  0
  -34.7254    3.9520  -43.9201 C   0  0  0  0  0  0  0  0  0  0  0  0
  -36.1072    3.5217  -46.1262 X   0  0  0  0  0  0  0  0  0  0  0  0
  1  2  1  0  0  0  0
  1  8  1  0  0  0  0
  1  9  1  0  0  0  0
  2  3  1  0  0  0  0
  3  4  1  0  0  0  0
  4  5  1  0  0  0  0
  4  7  1  0  0  0  0
  4  8  1  0  0  0  0
  5  6  1  0  0  0  0
  6  7  1  0  0  0  0
M  END
> <Index>
13967

> <PropertyFieldDistance>
nan

$$$$
10717806
BBcorina  12272117083D 1   1.00000     0.00000 
CORINA 4.3.0 0026  30.10.2019
 11 12  0  0  0  0  0  0  0  0999 V2000
  -36.0187    3.9437  -44.5835 N   0  0  0  0  0  0  0  0  0  0  0  0
  -36.9730    4.0072  -43.4690 C   0  0  0  0  0  0  0  0  0  0  0  0
  -36.6835    5.2476  -42.6193 C   0  0  0  0  0  0  0  0  0  0  0  0
  -35.2489    5.1801  -42.0993 C   0  0  0  0  0  0  0  0  0  0  0  0
  -34.9255    6.4376  -41.2795 C   0  0  0  0  0  0  0  0  0  0  0  0
  -34.5840    5.9547  -39.8538 C   0  0  0  0  0  0  0  0  0  0  0  0
  -34.1339    4.4851  -40.0477 C   0  0  0  0  0  0  0  0  0  0  0  0
  -35.0930    3.9757  -41.1530 C   0  0  0  0  0  0  0  0  0  0  0  0
  -34.2731    5.0495  -43.2683 C   0  0  0  0  0  0  0  0  0  0  0  0
  -34.6390    3.8155  -44.0976 C   0  0  0  0  0  0  0  0  0  0  0  0
  -36.4119    2.6704  -45.6550 X   0  0  0  0  0  0  0  0  0  0  0  0
  1  2  1  0  0  0  0
  1 10  1  0  0  0  0
  1 11  1  0  0  0  0
  2  3  1  0  0  0  0
  3  4  1  0  0  0  0
  4  5  1  0  0  0  0
  4  8  1  0  0  0  0
  4  9  1  0  0  0  0
  5  6  1  0  0  0  0
  6  7  1  0  0  0  0
  7  8  1  0  0  0  0
  9 10  1  0  0  0  0
M  END
> <Index>
13968

> <PropertyFieldDistance>
nan

$$$$
12058706
BBcorina  12272117083D 1   1.00000     0.00000 
CORINA 4.3.0 0026  30.10.2019
 10 10  0  0  0  0  0  0  0  0999 V2000
  -36.3098    2.2196  -44.9578 C   0  0  0  0  0  0  0  0  0  0  0  0
  -36.0452    3.4351  -44.1842 N   0  0  0  0  0  0  0  0  0  0  0  0
  -37.0871    4.3198  -43.6496 C   0  0  0  0  0  0  0  0  0  0  0  0
  -36.3861    5.1795  -42.5745 C   0  0  0  0  0  0  0  0  0  0  0  0
  -36.9374    6.6067  -42.5697 C   0  0  0  0  0  0  0  0  0  0  0  0
  -36.2301    7.4013  -41.5566 N   0  0  0  0  0  0  0  0  0  0  0  0
  -34.9180    5.1550  -43.0591 C   0  0  0  0  0  0  0  0  0  0  0  0
  -34.8169    3.8833  -43.8723 C   0  0  0  0  0  0  0  0  0  0  0  0
  -33.7787    3.3460  -44.1952 O   0  0  0  0  0  0  0  0  0  0  0  0
  -36.8168    9.0071  -41.5178 X   0  0  0  0  0  0  0  0  0  0  0  0
  1  2  1  0  0  0  0
  2  3  1  0  0  0  0
  2  8  1  0  0  0  0
  3  4  1  0  0  0  0
  4  5  1  0  0  0  0
  4  7  1  0  0  0  0
  5  6  1  0  0  0  0
  6 10  1  0  0  0  0
  7  8  1  0  0  0  0
  8  9  2  0  0  0  0
M  END
> <Index>
13973

> <PropertyFieldDistance>
nan

$$$$
16712290
BBcorina  12272117083D 1   1.00000     0.00000 
CORINA 4.3.0 0026  30.10.2019
  6  6  0  0  0  0  0  0  0  0999 V2000
  -37.5944    4.7846  -41.1016 Cl  0  0  0  0  0  0  0  0  0  0  0  0
  -36.4846    4.8057  -42.5225 C   0  0  0  0  0  0  0  0  0  0  0  0
  -37.1759    4.5246  -43.8641 C   0  0  0  0  0  0  0  0  0  0  0  0
  -36.0032    3.7116  -44.2370 N   0  0  0  0  0  0  0  0  0  0  0  0
  -35.7852    3.4674  -42.7989 C   0  0  0  0  0  0  0  0  0  0  0  0
  -36.4810    2.2776  -45.0366 X   0  0  0  0  0  0  0  0  0  0  0  0
  1  2  1  0  0  0  0
  2  3  1  0  0  0  0
  2  5  1  0  0  0  0
  3  4  1  0  0  0  0
  4  5  1  0  0  0  0
  4  6  1  0  0  0  0
M  END
> <Index>
13978

> <PropertyFieldDistance>
nan

$$$$
17657112
BBcorina  12272117083D 1   1.00000     0.00000 
CORINA 4.3.0 0026  30.10.2019
  9  9  0  0  0  0  0  0  0  0999 V2000
  -36.3354    2.3075  -44.8786 C   0  0  0  0  0  0  0  0  0  0  0  0
  -35.9453    3.3417  -43.9110 N   0  0  0  0  0  0  0  0  0  0  0  0
  -37.0433    4.2897  -43.6827 C   0  0  0  0  0  0  0  0  0  0  0  0
  -36.6554    5.2624  -42.5668 C   0  0  0  0  0  0  0  0  0  0  0  0
  -35.3833    6.0133  -42.9700 C   0  0  0  0  0  0  0  0  0  0  0  0
  -34.2691    5.0007  -43.2489 C   0  0  0  0  0  0  0  0  0  0  0  0
  -34.7262    4.0357  -44.3451 C   0  0  0  0  0  0  0  0  0  0  0  0
  -33.0615    5.7100  -43.6922 N   0  0  0  0  0  0  0  0  0  0  0  0
  -33.3646    6.6043  -45.1179 X   0  0  0  0  0  0  0  0  0  0  0  0
  1  2  1  0  0  0  0
  2  3  1  0  0  0  0
  2  7  1  0  0  0  0
  3  4  1  0  0  0  0
  4  5  1  0  0  0  0
  5  6  1  0  0  0  0
  6  7  1  0  0  0  0
  6  8  1  0  0  0  0
  8  9  1  0  0  0  0
M  END
> <Index>
13985

> <PropertyFieldDistance>
nan

$$$$
16887698
BBcorina  12272117083D 1   1.00000     0.00000 
CORINA 4.3.0 0026  30.10.2019
  9  9  0  0  0  0  0  0  0  0999 V2000
  -36.3354    2.3075  -44.8786 C   0  0  0  0  0  0  0  0  0  0  0  0
  -35.9453    3.3417  -43.9110 N   0  0  0  0  0  0  0  0  0  0  0  0
  -37.0433    4.2897  -43.6827 C   0  0  0  0  0  0  0  0  0  0  0  0
  -36.6554    5.2624  -42.5668 C   0  0  0  0  0  0  0  0  0  0  0  0
  -35.3833    6.0133  -42.9700 C   0  0  0  0  0  0  0  0  0  0  0  0
  -34.2691    5.0007  -43.2489 C   0  0  0  0  0  0  0  0  0  0  0  0
  -34.7262    4.0357  -44.3451 C   0  0  0  0  0  0  0  0  0  0  0  0
  -33.0615    5.7100  -43.6922 N   0  0  0  0  0  0  0  0  0  0  0  0
  -33.3646    6.6043  -45.1179 X   0  0  0  0  0  0  0  0  0  0  0  0
  1  2  1  0  0  0  0
  2  3  1  0  0  0  0
  2  7  1  0  0  0  0
  3  4  1  0  0  0  0
  4  5  1  0  0  0  0
  5  6  1  0  0  0  0
  6  7  1  0  0  0  0
  6  8  1  0  0  0  0
  8  9  1  0  0  0  0
M  END
> <Index>
13986

> <PropertyFieldDistance>
nan

$$$$
13441466
BBcorina  12272117083D 1   1.00000     0.00000 
CORINA 4.3.0 0026  30.10.2019
  9  9  0  0  0  0  0  0  0  0999 V2000
  -34.9479    6.3489  -41.3402 O   0  0  0  0  0  0  0  0  0  0  0  0
  -35.2462    5.1676  -42.0870 C   0  0  0  0  0  0  0  0  0  0  0  0
  -36.6793    5.2475  -42.6202 C   0  0  0  0  0  0  0  0  0  0  0  0
  -36.9723    4.0087  -43.4695 C   0  0  0  0  0  0  0  0  0  0  0  0
  -36.0192    3.9414  -44.5845 N   0  0  0  0  0  0  0  0  0  0  0  0
  -34.6396    3.8164  -44.0970 C   0  0  0  0  0  0  0  0  0  0  0  0
  -34.2769    5.0496  -43.2665 C   0  0  0  0  0  0  0  0  0  0  0  0
  -32.9695    4.9209  -42.7856 F   0  0  0  0  0  0  0  0  0  0  0  0
  -36.4110    2.6620  -45.6494 X   0  0  0  0  0  0  0  0  0  0  0  0
  1  2  1  0  0  0  0
  2  3  1  0  0  0  0
  2  7  1  0  0  0  0
  3  4  1  0  0  0  0
  4  5  1  0  0  0  0
  5  6  1  0  0  0  0
  5  9  1  0  0  0  0
  6  7  1  0  0  0  0
  7  8  1  0  0  0  0
M  END
> <Index>
13999

> <PropertyFieldDistance>
nan

$$$$
10124552
BBcorina  12272117083D 1   1.00000     0.00000 
CORINA 4.3.0 0026  30.10.2019
 13 13  0  0  0  0  0  0  0  0999 V2000
  -38.1752    6.5824  -43.9697 O   0  0  0  0  0  0  0  0  0  0  0  0
  -36.8357    6.5047  -43.4782 C   0  0  0  0  0  0  0  0  0  0  0  0
  -36.6793    5.2476  -42.6202 C   0  0  0  0  0  0  0  0  0  0  0  0
  -36.9723    4.0087  -43.4695 C   0  0  0  0  0  0  0  0  0  0  0  0
  -36.0191    3.9414  -44.5846 N   0  0  0  0  0  0  0  0  0  0  0  0
  -34.6396    3.8164  -44.0970 C   0  0  0  0  0  0  0  0  0  0  0  0
  -34.2769    5.0496  -43.2665 C   0  0  0  0  0  0  0  0  0  0  0  0
  -35.2462    5.1676  -42.0870 C   0  0  0  0  0  0  0  0  0  0  0  0
  -34.9268    6.4324  -41.2873 C   0  0  0  0  0  0  0  0  0  0  0  0
  -35.9071    6.6248  -40.3080 F   0  0  0  0  0  0  0  0  0  0  0  0
  -33.6767    6.2935  -40.6749 F   0  0  0  0  0  0  0  0  0  0  0  0
  -34.9046    7.5350  -42.1481 F   0  0  0  0  0  0  0  0  0  0  0  0
  -36.4111    2.6621  -45.6494 X   0  0  0  0  0  0  0  0  0  0  0  0
  1  2  1  0  0  0  0
  2  3  1  0  0  0  0
  3  4  1  0  0  0  0
  3  8  1  0  0  0  0
  4  5  1  0  0  0  0
  5  6  1  0  0  0  0
  5 13  1  0  0  0  0
  6  7  1  0  0  0  0
  7  8  1  0  0  0  0
  8  9  1  0  0  0  0
  9 10  1  0  0  0  0
  9 11  1  0  0  0  0
  9 12  1  0  0  0  0
M  END
> <Index>
14000

> <PropertyFieldDistance>
nan

$$$$
10390570
BBcorina  12272117083D 1   1.00000     0.00000 
CORINA 4.3.0 0026  30.10.2019
 11 11  0  0  0  0  0  0  0  0999 V2000
  -38.9853    5.4971  -41.9415 O   0  0  0  0  0  0  0  0  0  0  0  0
  -37.6586    5.3054  -41.4461 C   0  0  0  0  0  0  0  0  0  0  0  0
  -36.6793    5.2476  -42.6202 C   0  0  0  0  0  0  0  0  0  0  0  0
  -36.9723    4.0087  -43.4694 C   0  0  0  0  0  0  0  0  0  0  0  0
  -36.0191    3.9414  -44.5846 N   0  0  0  0  0  0  0  0  0  0  0  0
  -34.6396    3.8164  -44.0970 C   0  0  0  0  0  0  0  0  0  0  0  0
  -34.2770    5.0496  -43.2665 C   0  0  0  0  0  0  0  0  0  0  0  0
  -35.2462    5.1676  -42.0870 C   0  0  0  0  0  0  0  0  0  0  0  0
  -35.1165    4.0457  -41.2613 F   0  0  0  0  0  0  0  0  0  0  0  0
  -34.9542    6.3240  -41.3557 F   0  0  0  0  0  0  0  0  0  0  0  0
  -36.4110    2.6621  -45.6494 X   0  0  0  0  0  0  0  0  0  0  0  0
  1  2  1  0  0  0  0
  2  3  1  0  0  0  0
  3  4  1  0  0  0  0
  3  8  1  0  0  0  0
  4  5  1  0  0  0  0
  5  6  1  0  0  0  0
  5 11  1  0  0  0  0
  6  7  1  0  0  0  0
  7  8  1  0  0  0  0
  8  9  1  0  0  0  0
  8 10  1  0  0  0  0
M  END
> <Index>
14001

> <PropertyFieldDistance>
nan

$$$$
9208342
BBcorina  12272117083D 1   1.00000     0.00000 
CORINA 4.3.0 0026  30.10.2019
 15 16  0  0  0  0  0  0  0  0999 V2000
  -33.8078    7.7280  -42.2493 N   0  0  0  0  0  0  0  0  0  0  0  0
  -34.9584    6.9202  -41.8232 C   0  0  0  0  0  0  0  0  0  0  0  0
  -35.3855    5.9978  -42.9668 C   0  0  0  0  0  0  0  0  0  0  0  0
  -36.6590    5.2461  -42.5695 C   0  0  0  0  0  0  0  0  0  0  0  0
  -37.0468    4.2809  -43.6919 C   0  0  0  0  0  0  0  0  0  0  0  0
  -35.9498    3.3328  -43.9248 N   0  0  0  0  0  0  0  0  0  0  0  0
  -34.7293    4.0278  -44.3533 C   0  0  0  0  0  0  0  0  0  0  0  0
  -34.2722    4.9856  -43.2506 C   0  0  0  0  0  0  0  0  0  0  0  0
  -36.3176    2.3646  -44.8429 C   0  0  0  0  0  0  0  0  0  0  0  0
  -35.4462    1.4230  -45.1739 N   0  0  0  0  0  0  0  0  0  0  0  0
  -35.7677    0.4799  -46.0439 C   0  0  0  0  0  0  0  0  0  0  0  0
  -37.0327    0.4853  -46.6103 C   0  0  0  0  0  0  0  0  0  0  0  0
  -37.9195    1.4848  -46.2418 C   0  0  0  0  0  0  0  0  0  0  0  0
  -37.5345    2.3981  -45.3659 N   0  0  0  0  0  0  0  0  0  0  0  0
  -33.2973    8.7753  -40.9977 X   0  0  0  0  0  0  0  0  0  0  0  0
  1  2  1  0  0  0  0
  1 15  1  0  0  0  0
  2  3  1  0  0  0  0
  3  4  1  0  0  0  0
  3  8  1  0  0  0  0
  4  5  1  0  0  0  0
  5  6  1  0  0  0  0
  6  7  1  0  0  0  0
  6  9  1  0  0  0  0
  7  8  1  0  0  0  0
  9 10  2  0  0  0  0
  9 14  1  0  0  0  0
 10 11  1  0  0  0  0
 11 12  2  0  0  0  0
 12 13  1  0  0  0  0
 13 14  2  0  0  0  0
M  END
> <Index>
14005

> <PropertyFieldDistance>
nan

$$$$
7840528
BBcorina  12272117083D 1   1.00000     0.00000 
CORINA 4.3.0 0026  30.10.2019
 11 11  0  0  0  0  0  0  0  0999 V2000
  -36.2926    7.0047  -40.7769 F   0  0  0  0  0  0  0  0  0  0  0  0
  -35.1176    6.6877  -41.4667 C   0  0  0  0  0  0  0  0  0  0  0  0
  -34.1546    6.2292  -40.5613 F   0  0  0  0  0  0  0  0  0  0  0  0
  -34.6381    7.8282  -42.1198 F   0  0  0  0  0  0  0  0  0  0  0  0
  -35.4056    5.6114  -42.4816 C   0  0  0  0  0  0  0  0  0  0  0  0
  -36.6172    5.1544  -42.5744 C   0  0  0  0  0  0  0  0  0  0  0  0
  -37.0213    4.0825  -43.5451 C   0  0  0  0  0  0  0  0  0  0  0  0
  -36.0031    3.9345  -44.5928 N   0  0  0  0  0  0  0  0  0  0  0  0
  -34.6695    3.7815  -43.9878 C   0  0  0  0  0  0  0  0  0  0  0  0
  -34.2763    5.1106  -43.3377 C   0  0  0  0  0  0  0  0  0  0  0  0
  -36.0377    5.2601  -45.6726 X   0  0  0  0  0  0  0  0  0  0  0  0
  1  2  1  0  0  0  0
  2  3  1  0  0  0  0
  2  4  1  0  0  0  0
  2  5  1  0  0  0  0
  5  6  2  0  0  0  0
  5 10  1  0  0  0  0
  6  7  1  0  0  0  0
  7  8  1  0  0  0  0
  8  9  1  0  0  0  0
  8 11  1  0  0  0  0
  9 10  1  0  0  0  0
M  END
> <Index>
14034

> <PropertyFieldDistance>
nan

$$$$
9276196
BBcorina  12272117083D 1   1.00000     0.00000 
CORINA 4.3.0 0026  30.10.2019
 10 10  0  0  0  0  0  0  0  0999 V2000
  -35.9142    7.5512  -41.0516 O   0  0  0  0  0  0  0  0  0  0  0  0
  -34.9458    6.5588  -41.3972 C   0  0  0  0  0  0  0  0  0  0  0  0
  -35.3534    5.8832  -42.7079 C   0  0  0  0  0  0  0  0  0  0  0  0
  -36.6587    5.1099  -42.5007 C   0  0  0  0  0  0  0  0  0  0  0  0
  -37.0290    4.3869  -43.7977 C   0  0  0  0  0  0  0  0  0  0  0  0
  -35.9479    3.4664  -44.1723 N   0  0  0  0  0  0  0  0  0  0  0  0
  -34.6958    4.1916  -44.4226 C   0  0  0  0  0  0  0  0  0  0  0  0
  -34.2559    4.9088  -43.1443 C   0  0  0  0  0  0  0  0  0  0  0  0
  -34.0328    3.9476  -42.1107 O   0  0  0  0  0  0  0  0  0  0  0  0
  -36.3899    2.5210  -45.5270 X   0  0  0  0  0  0  0  0  0  0  0  0
  1  2  1  0  0  0  0
  2  3  1  0  0  0  0
  3  4  1  0  0  0  0
  3  8  1  0  0  0  0
  4  5  1  0  0  0  0
  5  6  1  0  0  0  0
  6  7  1  0  0  0  0
  6 10  1  0  0  0  0
  7  8  1  0  0  0  0
  8  9  1  0  0  0  0
M  END
> <Index>
14046

> <PropertyFieldDistance>
nan

$$$$
8600476
BBcorina  12272117083D 1   1.00000     0.00000 
CORINA 4.3.0 0026  30.10.2019
  9  9  0  0  0  0  0  0  0  0999 V2000
  -32.7440    4.0230  -41.6204 C   0  0  0  0  0  0  0  0  0  0  0  0
  -34.0404    4.8354  -41.6002 C   0  0  0  0  0  0  0  0  0  0  0  0
  -33.8203    6.0993  -42.2296 O   0  0  0  0  0  0  0  0  0  0  0  0
  -35.1316    4.0731  -42.3544 C   0  0  0  0  0  0  0  0  0  0  0  0
  -36.4196    4.9319  -42.4898 C   0  0  0  0  0  0  0  0  0  0  0  0
  -37.0796    4.3646  -43.7642 C   0  0  0  0  0  0  0  0  0  0  0  0
  -36.0217    3.7054  -44.5516 N   0  0  0  0  0  0  0  0  0  0  0  0
  -34.7367    3.8612  -43.8373 C   0  0  0  0  0  0  0  0  0  0  0  0
  -35.9306    4.3633  -46.1274 X   0  0  0  0  0  0  0  0  0  0  0  0
  1  2  1  0  0  0  0
  2  3  1  0  0  0  0
  2  4  1  0  0  0  0
  4  5  1  0  0  0  0
  4  8  1  0  0  0  0
  5  6  1  0  0  0  0
  6  7  1  0  0  0  0
  7  8  1  0  0  0  0
  7  9  1  0  0  0  0
M  END
> <Index>
14047

> <PropertyFieldDistance>
nan

$$$$
15269164
BBcorina  12272117083D 1   1.00000     0.00000 
CORINA 4.3.0 0026  30.10.2019
  9  9  0  0  0  0  0  0  0  0999 V2000
  -37.7032    5.5011  -44.5774 C   0  0  0  0  0  0  0  0  0  0  0  0
  -37.0805    4.3643  -43.7643 C   0  0  0  0  0  0  0  0  0  0  0  0
  -36.4180    4.9312  -42.4911 C   0  0  0  0  0  0  0  0  0  0  0  0
  -35.1335    4.0721  -42.3534 C   0  0  0  0  0  0  0  0  0  0  0  0
  -34.0429    4.8341  -41.5977 C   0  0  0  0  0  0  0  0  0  0  0  0
  -32.9202    3.9754  -41.3876 O   0  0  0  0  0  0  0  0  0  0  0  0
  -34.7374    3.8617  -43.8361 C   0  0  0  0  0  0  0  0  0  0  0  0
  -36.0218    3.7060  -44.5515 N   0  0  0  0  0  0  0  0  0  0  0  0
  -35.9297    4.3653  -46.1267 X   0  0  0  0  0  0  0  0  0  0  0  0
  1  2  1  0  0  0  0
  2  3  1  0  0  0  0
  2  8  1  0  0  0  0
  3  4  1  0  0  0  0
  4  5  1  0  0  0  0
  4  7  1  0  0  0  0
  5  6  1  0  0  0  0
  7  8  1  0  0  0  0
  8  9  1  0  0  0  0
M  END
> <Index>
14048

> <PropertyFieldDistance>
nan

$$$$
10143462
BBcorina  12272117083D 1   1.00000     0.00000 
CORINA 4.3.0 0026  30.10.2019
  7  7  0  0  0  0  0  0  0  0999 V2000
  -36.0235    3.6359  -44.4148 N   0  0  0  0  0  0  0  0  0  0  0  0
  -37.0515    4.4879  -43.8018 C   0  0  0  0  0  0  0  0  0  0  0  0
  -36.5887    4.9179  -42.4070 C   0  0  0  0  0  0  0  0  0  0  0  0
  -36.3150    3.6697  -41.5624 C   0  0  0  0  0  0  0  0  0  0  0  0
  -35.2826    2.7955  -42.2797 C   0  0  0  0  0  0  0  0  0  0  0  0
  -35.7856    2.4452  -43.6149 N   0  0  0  0  0  0  0  0  0  0  0  0
  -36.4466    3.2233  -46.0193 X   0  0  0  0  0  0  0  0  0  0  0  0
  1  2  1  0  0  0  0
  1  6  1  0  0  0  0
  1  7  1  0  0  0  0
  2  3  1  0  0  0  0
  3  4  1  0  0  0  0
  4  5  1  0  0  0  0
  5  6  1  0  0  0  0
M  END
> <Index>
14050

> <PropertyFieldDistance>
nan

$$$$
13155590
BBcorina  12272117083D 1   1.00000     0.00000 
CORINA 4.3.0 0026  30.10.2019
  9  9  0  0  0  0  0  0  0  0999 V2000
  -36.0191    3.9414  -44.5845 N   0  0  0  0  0  0  0  0  0  0  0  0
  -36.9723    4.0087  -43.4695 C   0  0  0  0  0  0  0  0  0  0  0  0
  -36.6793    5.2476  -42.6202 C   0  0  0  0  0  0  0  0  0  0  0  0
  -35.2461    5.1686  -42.0870 C   0  0  0  0  0  0  0  0  0  0  0  0
  -34.2770    5.0496  -43.2665 C   0  0  0  0  0  0  0  0  0  0  0  0
  -34.6395    3.8164  -44.0970 C   0  0  0  0  0  0  0  0  0  0  0  0
  -32.9013    4.9142  -42.7605 C   0  0  0  0  0  0  0  0  0  0  0  0
  -31.8397    4.8097  -42.3700 N   0  0  0  0  0  0  0  0  0  0  0  0
  -36.4110    2.6621  -45.6494 X   0  0  0  0  0  0  0  0  0  0  0  0
  1  2  1  0  0  0  0
  1  6  1  0  0  0  0
  1  9  1  0  0  0  0
  2  3  1  0  0  0  0
  3  4  1  0  0  0  0
  4  5  1  0  0  0  0
  5  6  1  0  0  0  0
  5  7  1  0  0  0  0
  7  8  3  0  0  0  0
M  END
> <Index>
14051

> <PropertyFieldDistance>
nan

$$$$
15258854
BBcorina  12272117083D 1   1.00000     0.00000 
CORINA 4.3.0 0026  30.10.2019
 10 11  0  0  0  0  0  0  0  0999 V2000
  -35.9534    3.8144  -44.7035 N   0  0  0  0  0  0  0  0  0  0  0  0
  -36.9479    4.2580  -43.7004 C   0  0  0  0  0  0  0  0  0  0  0  0
  -36.0013    3.6570  -42.6444 C   0  0  0  0  0  0  0  0  0  0  0  0
  -34.8881    3.8449  -43.6843 C   0  0  0  0  0  0  0  0  0  0  0  0
  -34.1768    5.1914  -43.5823 C   0  0  0  0  0  0  0  0  0  0  0  0
  -33.2313    5.1733  -42.3775 C   0  0  0  0  0  0  0  0  0  0  0  0
  -32.2339    4.0236  -42.5309 C   0  0  0  0  0  0  0  0  0  0  0  0
  -32.9843    2.6908  -42.5614 C   0  0  0  0  0  0  0  0  0  0  0  0
  -33.9253    2.6637  -43.7696 C   0  0  0  0  0  0  0  0  0  0  0  0
  -35.7008    5.0193  -45.8903 X   0  0  0  0  0  0  0  0  0  0  0  0
  1  2  1  0  0  0  0
  1  4  1  0  0  0  0
  1 10  1  0  0  0  0
  2  3  1  0  0  0  0
  3  4  1  0  0  0  0
  4  5  1  0  0  0  0
  4  9  1  0  0  0  0
  5  6  1  0  0  0  0
  6  7  1  0  0  0  0
  7  8  1  0  0  0  0
  8  9  1  0  0  0  0
M  END
> <Index>
14057

> <PropertyFieldDistance>
nan

$$$$
12851612
BBcorina  12272117083D 1   1.00000     0.00000 
CORINA 4.3.0 0026  30.10.2019
 10 10  0  0  0  0  0  0  0  0999 V2000
  -31.7124    5.4381  -43.5586 C   0  0  0  0  0  0  0  0  0  0  0  0
  -32.8686    4.9108  -42.7485 C   0  0  0  0  0  0  0  0  0  0  0  0
  -32.6669    4.3816  -41.6818 O   0  0  0  0  0  0  0  0  0  0  0  0
  -34.2770    5.0496  -43.2665 C   0  0  0  0  0  0  0  0  0  0  0  0
  -35.2461    5.1685  -42.0870 C   0  0  0  0  0  0  0  0  0  0  0  0
  -36.6793    5.2476  -42.6202 C   0  0  0  0  0  0  0  0  0  0  0  0
  -36.9723    4.0086  -43.4695 C   0  0  0  0  0  0  0  0  0  0  0  0
  -36.0192    3.9414  -44.5845 N   0  0  0  0  0  0  0  0  0  0  0  0
  -34.6396    3.8164  -44.0970 C   0  0  0  0  0  0  0  0  0  0  0  0
  -36.4112    2.6622  -45.6495 X   0  0  0  0  0  0  0  0  0  0  0  0
  1  2  1  0  0  0  0
  2  3  2  0  0  0  0
  2  4  1  0  0  0  0
  4  5  1  0  0  0  0
  4  9  1  0  0  0  0
  5  6  1  0  0  0  0
  6  7  1  0  0  0  0
  7  8  1  0  0  0  0
  8  9  1  0  0  0  0
  8 10  1  0  0  0  0
M  END
> <Index>
14060

> <PropertyFieldDistance>
nan

$$$$
17311892
BBcorina  12272117083D 1   1.00000     0.00000 
CORINA 4.3.0 0026  30.10.2019
 11 11  0  0  0  0  0  0  0  0999 V2000
  -33.4939    6.3544  -40.7590 C   0  0  0  0  0  0  0  0  0  0  0  0
  -34.9273    6.4334  -41.2883 C   0  0  0  0  0  0  0  0  0  0  0  0
  -35.2464    5.1685  -42.0875 C   0  0  0  0  0  0  0  0  0  0  0  0
  -36.6796    5.2477  -42.6204 C   0  0  0  0  0  0  0  0  0  0  0  0
  -36.9723    4.0084  -43.4693 C   0  0  0  0  0  0  0  0  0  0  0  0
  -36.0194    3.9411  -44.5845 N   0  0  0  0  0  0  0  0  0  0  0  0
  -34.6397    3.8168  -44.0973 C   0  0  0  0  0  0  0  0  0  0  0  0
  -34.2763    5.0495  -43.2662 C   0  0  0  0  0  0  0  0  0  0  0  0
  -35.1097    3.9891  -41.2171 C   0  0  0  0  0  0  0  0  0  0  0  0
  -35.0042    3.0791  -40.5454 N   0  0  0  0  0  0  0  0  0  0  0  0
  -36.4111    2.6615  -45.6489 X   0  0  0  0  0  0  0  0  0  0  0  0
  1  2  1  0  0  0  0
  2  3  1  0  0  0  0
  3  4  1  0  0  0  0
  3  8  1  0  0  0  0
  3  9  1  0  0  0  0
  4  5  1  0  0  0  0
  5  6  1  0  0  0  0
  6  7  1  0  0  0  0
  6 11  1  0  0  0  0
  7  8  1  0  0  0  0
  9 10  3  0  0  0  0
M  END
> <Index>
14086

> <PropertyFieldDistance>
nan

$$$$
12915006
BBcorina  12272117083D 1   1.00000     0.00000 
CORINA 4.3.0 0026  30.10.2019
 14 15  0  0  0  0  0  0  0  0999 V2000
  -36.3360    2.2641  -44.9021 C   0  0  0  0  0  0  0  0  0  0  0  0
  -36.0121    3.4845  -44.1592 N   0  0  0  0  0  0  0  0  0  0  0  0
  -36.9593    4.1176  -43.4331 C   0  0  0  0  0  0  0  0  0  0  0  0
  -38.0815    3.6621  -43.3661 O   0  0  0  0  0  0  0  0  0  0  0  0
  -36.6150    5.3928  -42.7063 C   0  0  0  0  0  0  0  0  0  0  0  0
  -35.2428    5.3623  -42.3057 O   0  0  0  0  0  0  0  0  0  0  0  0
  -34.3406    4.9642  -43.2423 C   0  0  0  0  0  0  0  0  0  0  0  0
  -33.0613    5.4948  -43.2605 C   0  0  0  0  0  0  0  0  0  0  0  0
  -32.1539    5.0807  -44.2192 C   0  0  0  0  0  0  0  0  0  0  0  0
  -32.5173    4.1385  -45.1626 C   0  0  0  0  0  0  0  0  0  0  0  0
  -33.7981    3.6007  -45.1532 C   0  0  0  0  0  0  0  0  0  0  0  0
  -34.1672    2.6475  -46.1084 N   0  0  0  0  0  0  0  0  0  0  0  0
  -34.7117    4.0145  -44.1901 C   0  0  0  0  0  0  0  0  0  0  0  0
  -33.8136    2.9114  -47.7605 X   0  0  0  0  0  0  0  0  0  0  0  0
  1  2  1  0  0  0  0
  2  3  1  0  0  0  0
  2 13  1  0  0  0  0
  3  4  2  0  0  0  0
  3  5  1  0  0  0  0
  5  6  1  0  0  0  0
  6  7  1  0  0  0  0
  7  8  2  0  0  0  0
  7 13  1  0  0  0  0
  8  9  1  0  0  0  0
  9 10  2  0  0  0  0
 10 11  1  0  0  0  0
 11 12  1  0  0  0  0
 11 13  2  0  0  0  0
 12 14  1  0  0  0  0
M  END
> <Index>
14087

> <PropertyFieldDistance>
nan

$$$$
11945764
BBcorina  12272117083D 1   1.00000     0.00000 
CORINA 4.3.0 0026  30.10.2019
  9  9  0  0  0  0  0  0  0  0999 V2000
  -38.3969    4.0940  -44.0210 C   0  0  0  0  0  0  0  0  0  0  0  0
  -36.9723    4.0087  -43.4695 C   0  0  0  0  0  0  0  0  0  0  0  0
  -36.6793    5.2475  -42.6202 C   0  0  0  0  0  0  0  0  0  0  0  0
  -35.2462    5.1676  -42.0870 C   0  0  0  0  0  0  0  0  0  0  0  0
  -34.2769    5.0496  -43.2665 C   0  0  0  0  0  0  0  0  0  0  0  0
  -34.6396    3.8164  -44.0970 C   0  0  0  0  0  0  0  0  0  0  0  0
  -36.0191    3.9414  -44.5845 N   0  0  0  0  0  0  0  0  0  0  0  0
  -36.3523    2.8536  -45.4900 N   0  0  0  0  0  0  0  0  0  0  0  0
  -35.1149    1.6737  -45.5120 X   0  0  0  0  0  0  0  0  0  0  0  0
  1  2  1  0  0  0  0
  2  3  1  0  0  0  0
  2  7  1  0  0  0  0
  3  4  1  0  0  0  0
  4  5  1  0  0  0  0
  5  6  1  0  0  0  0
  6  7  1  0  0  0  0
  7  8  1  0  0  0  0
  8  9  1  0  0  0  0
M  END
> <Index>
14089

> <PropertyFieldDistance>
nan

$$$$
12424754
BBcorina  12272117083D 1   1.00000     0.00000 
CORINA 4.3.0 0026  30.10.2019
 14 15  0  0  0  0  0  0  0  0999 V2000
  -37.6682   -0.3713  -48.5679 I   0  0  0  0  0  0  0  0  0  0  0  0
  -37.0858    0.8800  -46.9918 C   0  0  0  0  0  0  0  0  0  0  0  0
  -35.8347    0.7494  -46.4087 C   0  0  0  0  0  0  0  0  0  0  0  0
  -35.4986    1.5554  -45.4151 N   0  0  0  0  0  0  0  0  0  0  0  0
  -36.3420    2.4786  -44.9771 C   0  0  0  0  0  0  0  0  0  0  0  0
  -37.5465    2.6262  -45.5086 N   0  0  0  0  0  0  0  0  0  0  0  0
  -37.9433    1.8567  -46.5087 C   0  0  0  0  0  0  0  0  0  0  0  0
  -35.9573    3.3051  -43.9353 N   0  0  0  0  0  0  0  0  0  0  0  0
  -37.0246    4.2569  -43.5966 C   0  0  0  0  0  0  0  0  0  0  0  0
  -36.5922    5.0966  -42.3923 C   0  0  0  0  0  0  0  0  0  0  0  0
  -35.3437    5.8022  -42.7132 N   0  0  0  0  0  0  0  0  0  0  0  0
  -34.2764    4.8505  -43.0520 C   0  0  0  0  0  0  0  0  0  0  0  0
  -34.7088    4.0106  -44.2564 C   0  0  0  0  0  0  0  0  0  0  0  0
  -34.8685    6.8232  -41.4264 X   0  0  0  0  0  0  0  0  0  0  0  0
  1  2  1  0  0  0  0
  2  3  2  0  0  0  0
  2  7  1  0  0  0  0
  3  4  1  0  0  0  0
  4  5  2  0  0  0  0
  5  6  1  0  0  0  0
  5  8  1  0  0  0  0
  6  7  2  0  0  0  0
  8  9  1  0  0  0  0
  8 13  1  0  0  0  0
  9 10  1  0  0  0  0
 10 11  1  0  0  0  0
 11 12  1  0  0  0  0
 11 14  1  0  0  0  0
 12 13  1  0  0  0  0
M  END
> <Index>
14120

> <PropertyFieldDistance>
nan

$$$$
12910346
BBcorina  12272117083D 1   1.00000     0.00000 
CORINA 4.3.0 0026  30.10.2019
 12 13  0  0  0  0  0  0  0  0999 V2000
  -36.0191    3.9415  -44.5843 N   0  0  0  0  0  0  0  0  0  0  0  0
  -36.9726    4.0085  -43.4695 C   0  0  0  0  0  0  0  0  0  0  0  0
  -36.6795    5.2477  -42.6202 C   0  0  0  0  0  0  0  0  0  0  0  0
  -35.2465    5.1679  -42.0883 C   0  0  0  0  0  0  0  0  0  0  0  0
  -34.9277    6.4330  -41.2887 C   0  0  0  0  0  0  0  0  0  0  0  0
  -35.8649    6.5130  -40.0796 C   0  0  0  0  0  0  0  0  0  0  0  0
  -35.7101    5.2396  -39.2425 C   0  0  0  0  0  0  0  0  0  0  0  0
  -35.9999    4.0207  -40.1223 C   0  0  0  0  0  0  0  0  0  0  0  0
  -35.1141    4.0234  -41.2439 O   0  0  0  0  0  0  0  0  0  0  0  0
  -34.2766    5.0495  -43.2664 C   0  0  0  0  0  0  0  0  0  0  0  0
  -34.6395    3.8164  -44.0973 C   0  0  0  0  0  0  0  0  0  0  0  0
  -36.4111    2.6627  -45.6499 X   0  0  0  0  0  0  0  0  0  0  0  0
  1  2  1  0  0  0  0
  1 11  1  0  0  0  0
  1 12  1  0  0  0  0
  2  3  1  0  0  0  0
  3  4  1  0  0  0  0
  4  5  1  0  0  0  0
  4  9  1  0  0  0  0
  4 10  1  0  0  0  0
  5  6  1  0  0  0  0
  6  7  1  0  0  0  0
  7  8  1  0  0  0  0
  8  9  1  0  0  0  0
 10 11  1  0  0  0  0
M  END
> <Index>
14130

> <PropertyFieldDistance>
nan

$$$$
10153562
BBcorina  12272117083D 1   1.00000     0.00000 
CORINA 4.3.0 0026  30.10.2019
 10 10  0  0  0  0  0  0  0  0999 V2000
  -38.1311    0.1876  -45.9332 C   0  0  0  0  0  0  0  0  0  0  0  0
  -36.6117    0.2135  -46.1113 C   0  0  0  0  0  0  0  0  0  0  0  0
  -36.2499   -0.3261  -47.4975 C   0  0  0  0  0  0  0  0  0  0  0  0
  -34.8352   -0.2470  -47.6839 O   0  0  0  0  0  0  0  0  0  0  0  0
  -34.3121    1.0814  -47.6230 C   0  0  0  0  0  0  0  0  0  0  0  0
  -34.5960    1.6776  -46.2418 C   0  0  0  0  0  0  0  0  0  0  0  0
  -36.1059    1.6538  -45.9847 C   0  0  0  0  0  0  0  0  0  0  0  0
  -36.3933    2.1751  -44.5752 C   0  0  0  0  0  0  0  0  0  0  0  0
  -36.0173    3.5927  -44.4913 N   0  0  0  0  0  0  0  0  0  0  0  0
  -36.3229    4.2164  -42.9287 X   0  0  0  0  0  0  0  0  0  0  0  0
  1  2  1  0  0  0  0
  2  3  1  0  0  0  0
  2  7  1  0  0  0  0
  3  4  1  0  0  0  0
  4  5  1  0  0  0  0
  5  6  1  0  0  0  0
  6  7  1  0  0  0  0
  7  8  1  0  0  0  0
  8  9  1  0  0  0  0
  9 10  1  0  0  0  0
M  END
> <Index>
14131

> <PropertyFieldDistance>
nan

$$$$
12432748
BBcorina  12272117083D 1   1.00000     0.00000 
CORINA 4.3.0 0026  30.10.2019
  9 10  0  0  0  0  0  0  0  0999 V2000
  -36.0280    3.8941  -44.5995 N   0  0  0  0  0  0  0  0  0  0  0  0
  -36.9809    4.0397  -43.4889 C   0  0  0  0  0  0  0  0  0  0  0  0
  -36.5741    5.2524  -42.6371 C   0  0  0  0  0  0  0  0  0  0  0  0
  -36.3351    6.4449  -43.5935 C   0  0  0  0  0  0  0  0  0  0  0  0
  -34.8460    6.3114  -43.9851 C   0  0  0  0  0  0  0  0  0  0  0  0
  -34.3727    5.0551  -43.2161 C   0  0  0  0  0  0  0  0  0  0  0  0
  -34.6316    3.8223  -44.0962 C   0  0  0  0  0  0  0  0  0  0  0  0
  -35.2681    4.9701  -42.0832 O   0  0  0  0  0  0  0  0  0  0  0  0
  -36.4056    2.5277  -45.5557 X   0  0  0  0  0  0  0  0  0  0  0  0
  1  2  1  0  0  0  0
  1  7  1  0  0  0  0
  1  9  1  0  0  0  0
  2  3  1  0  0  0  0
  3  4  1  0  0  0  0
  3  8  1  0  0  0  0
  4  5  1  0  0  0  0
  5  6  1  0  0  0  0
  6  7  1  0  0  0  0
  6  8  1  0  0  0  0
M  END
> <Index>
14134

> <PropertyFieldDistance>
nan

$$$$
8962340
BBcorina  12272117083D 1   1.00000     0.00000 
CORINA 4.3.0 0026  30.10.2019
 10 10  0  0  0  0  0  0  0  0999 V2000
  -34.6982    1.6857  -46.2284 O   0  0  0  0  0  0  0  0  0  0  0  0
  -36.1059    1.6538  -45.9847 C   0  0  0  0  0  0  0  0  0  0  0  0
  -36.3933    2.1751  -44.5753 C   0  0  0  0  0  0  0  0  0  0  0  0
  -36.0173    3.5927  -44.4913 N   0  0  0  0  0  0  0  0  0  0  0  0
  -36.6156    0.2150  -46.1127 C   0  0  0  0  0  0  0  0  0  0  0  0
  -36.3951   -0.2705  -47.5478 C   0  0  0  0  0  0  0  0  0  0  0  0
  -37.0651    0.6076  -48.4545 O   0  0  0  0  0  0  0  0  0  0  0  0
  -36.5972    1.9572  -48.4129 C   0  0  0  0  0  0  0  0  0  0  0  0
  -36.8240    2.5335  -47.0127 C   0  0  0  0  0  0  0  0  0  0  0  0
  -36.3229    4.2163  -42.9287 X   0  0  0  0  0  0  0  0  0  0  0  0
  1  2  1  0  0  0  0
  2  3  1  0  0  0  0
  2  5  1  0  0  0  0
  2  9  1  0  0  0  0
  3  4  1  0  0  0  0
  4 10  1  0  0  0  0
  5  6  1  0  0  0  0
  6  7  1  0  0  0  0
  7  8  1  0  0  0  0
  8  9  1  0  0  0  0
M  END
> <Index>
14135

> <PropertyFieldDistance>
nan

$$$$
14236192
BBcorina  12272117083D 1   1.00000     0.00000 
CORINA 4.3.0 0026  30.10.2019
  8  8  0  0  0  0  0  0  0  0999 V2000
  -35.6403    3.5046  -46.1706 C   0  0  0  0  0  0  0  0  0  0  0  0
  -34.8358    3.0929  -45.0125 N   0  0  0  0  0  0  0  0  0  0  0  0
  -35.6812    2.8964  -43.8273 C   0  0  0  0  0  0  0  0  0  0  0  0
  -34.8480    2.3414  -42.6400 C   0  0  0  0  0  0  0  0  0  0  0  0
  -35.6564    2.8823  -41.4339 C   0  0  0  0  0  0  0  0  0  0  0  0
  -36.1183    4.1797  -41.8440 O   0  0  0  0  0  0  0  0  0  0  0  0
  -36.1810    4.2480  -43.2734 C   0  0  0  0  0  0  0  0  0  0  0  0
  -33.9342    1.6827  -45.3628 X   0  0  0  0  0  0  0  0  0  0  0  0
  1  2  1  0  0  0  0
  2  3  1  0  0  0  0
  2  8  1  0  0  0  0
  3  4  1  0  0  0  0
  3  7  1  0  0  0  0
  4  5  1  0  0  0  0
  5  6  1  0  0  0  0
  6  7  1  0  0  0  0
M  END
> <Index>
14142

> <PropertyFieldDistance>
nan

$$$$
12496580
BBcorina  12272117083D 1   1.00000     0.00000 
CORINA 4.3.0 0026  30.10.2019
 12 12  0  0  0  0  0  0  0  0999 V2000
  -33.8175    8.5288  -42.2393 C   0  0  0  0  0  0  0  0  0  0  0  0
  -33.6509    7.2297  -41.5742 N   0  0  0  0  0  0  0  0  0  0  0  0
  -32.9568    7.3816  -40.2885 C   0  0  0  0  0  0  0  0  0  0  0  0
  -34.9458    6.5589  -41.3973 C   0  0  0  0  0  0  0  0  0  0  0  0
  -35.3535    5.8833  -42.7081 C   0  0  0  0  0  0  0  0  0  0  0  0
  -35.5414    6.8749  -43.7196 O   0  0  0  0  0  0  0  0  0  0  0  0
  -36.6587    5.1099  -42.5007 C   0  0  0  0  0  0  0  0  0  0  0  0
  -37.0290    4.3869  -43.7977 C   0  0  0  0  0  0  0  0  0  0  0  0
  -35.9480    3.4664  -44.1723 N   0  0  0  0  0  0  0  0  0  0  0  0
  -34.6958    4.1916  -44.4226 C   0  0  0  0  0  0  0  0  0  0  0  0
  -34.2558    4.9088  -43.1443 C   0  0  0  0  0  0  0  0  0  0  0  0
  -36.3899    2.5210  -45.5269 X   0  0  0  0  0  0  0  0  0  0  0  0
  1  2  1  0  0  0  0
  2  3  1  0  0  0  0
  2  4  1  0  0  0  0
  4  5  1  0  0  0  0
  5  6  1  0  0  0  0
  5  7  1  0  0  0  0
  5 11  1  0  0  0  0
  7  8  1  0  0  0  0
  8  9  1  0  0  0  0
  9 10  1  0  0  0  0
  9 12  1  0  0  0  0
 10 11  1  0  0  0  0
M  END
> <Index>
14164

> <PropertyFieldDistance>
nan

$$$$
13206576
BBcorina  12272117083D 1   1.00000     0.00000 
CORINA 4.3.0 0026  30.10.2019
 14 15  0  0  0  0  0  0  0  0999 V2000
  -34.9372    0.0014  -47.7769 Cl  0  0  0  0  0  0  0  0  0  0  0  0
  -35.8596    0.6583  -46.4611 C   0  0  0  0  0  0  0  0  0  0  0  0
  -36.9112   -0.0586  -45.9025 C   0  0  0  0  0  0  0  0  0  0  0  0
  -37.6245    0.4923  -44.8574 C   0  0  0  0  0  0  0  0  0  0  0  0
  -37.3204    1.6864  -44.3852 N   0  0  0  0  0  0  0  0  0  0  0  0
  -36.3260    2.4009  -44.8900 C   0  0  0  0  0  0  0  0  0  0  0  0
  -35.5681    1.9110  -45.9478 C   0  0  0  0  0  0  0  0  0  0  0  0
  -36.0410    3.6546  -44.3612 N   0  0  0  0  0  0  0  0  0  0  0  0
  -36.9584    3.9831  -43.2611 C   0  0  0  0  0  0  0  0  0  0  0  0
  -36.6644    5.3991  -42.7603 C   0  0  0  0  0  0  0  0  0  0  0  0
  -35.2656    5.4784  -42.3166 N   0  0  0  0  0  0  0  0  0  0  0  0
  -34.3478    5.1502  -43.4164 C   0  0  0  0  0  0  0  0  0  0  0  0
  -34.6419    3.7341  -43.9173 C   0  0  0  0  0  0  0  0  0  0  0  0
  -34.9156    7.0205  -41.6659 X   0  0  0  0  0  0  0  0  0  0  0  0
  1  2  1  0  0  0  0
  2  3  2  0  0  0  0
  2  7  1  0  0  0  0
  3  4  1  0  0  0  0
  4  5  2  0  0  0  0
  5  6  1  0  0  0  0
  6  7  2  0  0  0  0
  6  8  1  0  0  0  0
  8  9  1  0  0  0  0
  8 13  1  0  0  0  0
  9 10  1  0  0  0  0
 10 11  1  0  0  0  0
 11 12  1  0  0  0  0
 11 14  1  0  0  0  0
 12 13  1  0  0  0  0
M  END
> <Index>
14187

> <PropertyFieldDistance>
nan

$$$$
17319714
BBcorina  12272117083D 1   1.00000     0.00000 
CORINA 4.3.0 0026  30.10.2019
 15 16  0  0  0  0  0  0  0  0999 V2000
  -36.4275    2.6267  -45.2574 C   0  0  0  0  0  0  0  0  0  0  0  0
  -35.9858    3.2990  -44.0283 N   0  0  0  0  0  0  0  0  0  0  0  0
  -37.0072    4.2390  -43.5459 C   0  0  0  0  0  0  0  0  0  0  0  0
  -36.5440    4.8579  -42.2250 C   0  0  0  0  0  0  0  0  0  0  0  0
  -35.2592    5.5409  -42.4310 N   0  0  0  0  0  0  0  0  0  0  0  0
  -34.2378    4.6010  -42.9133 C   0  0  0  0  0  0  0  0  0  0  0  0
  -34.7010    3.9821  -44.2343 C   0  0  0  0  0  0  0  0  0  0  0  0
  -34.8411    6.1773  -41.2676 C   0  0  0  0  0  0  0  0  0  0  0  0
  -33.6446    6.8805  -41.2614 C   0  0  0  0  0  0  0  0  0  0  0  0
  -33.2393    7.5123  -40.0895 C   0  0  0  0  0  0  0  0  0  0  0  0
  -32.0460    8.2274  -40.0408 N   0  0  0  0  0  0  0  0  0  0  0  0
  -34.0590    7.4107  -38.9635 C   0  0  0  0  0  0  0  0  0  0  0  0
  -35.2331    6.6946  -39.0484 C   0  0  0  0  0  0  0  0  0  0  0  0
  -35.5894    6.1065  -40.1758 N   0  0  0  0  0  0  0  0  0  0  0  0
  -31.5683    8.9956  -38.5897 X   0  0  0  0  0  0  0  0  0  0  0  0
  1  2  1  0  0  0  0
  2  3  1  0  0  0  0
  2  7  1  0  0  0  0
  3  4  1  0  0  0  0
  4  5  1  0  0  0  0
  5  6  1  0  0  0  0
  5  8  1  0  0  0  0
  6  7  1  0  0  0  0
  8  9  2  0  0  0  0
  8 14  1  0  0  0  0
  9 10  1  0  0  0  0
 10 11  1  0  0  0  0
 10 12  2  0  0  0  0
 11 15  1  0  0  0  0
 12 13  1  0  0  0  0
 13 14  2  0  0  0  0
M  END
> <Index>
14196

> <PropertyFieldDistance>
nan

$$$$
14941646
BBcorina  12272117083D 1   1.00000     0.00000 
CORINA 4.3.0 0026  30.10.2019
 12 12  0  0  0  0  0  0  0  0999 V2000
  -35.6676    6.4998  -43.7569 N   0  0  0  0  0  0  0  0  0  0  0  0
  -35.6476    5.0309  -43.7650 C   0  0  0  0  0  0  0  0  0  0  0  0
  -34.9315    4.5375  -45.0238 C   0  0  0  0  0  0  0  0  0  0  0  0
  -35.8493    3.5846  -45.7923 C   0  0  0  0  0  0  0  0  0  0  0  0
  -35.2339    2.1839  -45.8057 C   0  0  0  0  0  0  0  0  0  0  0  0
  -36.1369    1.2227  -45.0301 C   0  0  0  0  0  0  0  0  0  0  0  0
  -35.3969    0.7158  -43.7906 C   0  0  0  0  0  0  0  0  0  0  0  0
  -36.1130    1.2092  -42.5318 C   0  0  0  0  0  0  0  0  0  0  0  0
  -35.1953    2.1622  -41.7633 C   0  0  0  0  0  0  0  0  0  0  0  0
  -35.8107    3.5629  -41.7499 C   0  0  0  0  0  0  0  0  0  0  0  0
  -34.9076    4.5241  -42.5255 C   0  0  0  0  0  0  0  0  0  0  0  0
  -37.0506    7.0894  -42.9423 X   0  0  0  0  0  0  0  0  0  0  0  0
  1  2  1  0  0  0  0
  1 12  1  0  0  0  0
  2  3  1  0  0  0  0
  2 11  1  0  0  0  0
  3  4  1  0  0  0  0
  4  5  1  0  0  0  0
  5  6  1  0  0  0  0
  6  7  1  0  0  0  0
  7  8  1  0  0  0  0
  8  9  1  0  0  0  0
  9 10  1  0  0  0  0
 10 11  1  0  0  0  0
M  END
> <Index>
14240

> <PropertyFieldDistance>
nan

$$$$
9298254
BBcorina  12272117083D 1   1.00000     0.00000 
CORINA 4.3.0 0026  30.10.2019
 10 11  0  0  0  0  0  0  0  0999 V2000
  -36.0173    3.5927  -44.4913 N   0  0  0  0  0  0  0  0  0  0  0  0
  -36.3933    2.1751  -44.5752 C   0  0  0  0  0  0  0  0  0  0  0  0
  -36.1059    1.6538  -45.9847 C   0  0  0  0  0  0  0  0  0  0  0  0
  -34.5842    1.6455  -46.2563 C   0  0  0  0  0  0  0  0  0  0  0  0
  -34.2391    0.1480  -46.5204 C   0  0  0  0  0  0  0  0  0  0  0  0
  -34.8880   -0.1640  -47.9034 C   0  0  0  0  0  0  0  0  0  0  0  0
  -36.4206   -0.1730  -47.6290 C   0  0  0  0  0  0  0  0  0  0  0  0
  -36.5369    0.1606  -46.1103 C   0  0  0  0  0  0  0  0  0  0  0  0
  -35.2564   -0.5585  -45.5565 C   0  0  0  0  0  0  0  0  0  0  0  0
  -36.3230    4.2163  -42.9287 X   0  0  0  0  0  0  0  0  0  0  0  0
  1  2  1  0  0  0  0
  1 10  1  0  0  0  0
  2  3  1  0  0  0  0
  3  4  1  0  0  0  0
  3  8  1  0  0  0  0
  4  5  1  0  0  0  0
  5  6  1  0  0  0  0
  5  9  1  0  0  0  0
  6  7  1  0  0  0  0
  7  8  1  0  0  0  0
  8  9  1  0  0  0  0
M  END
> <Index>
14261

> <PropertyFieldDistance>
nan

$$$$
15740974
BBcorina  12272117083D 1   1.00000     0.00000 
CORINA 4.3.0 0026  30.10.2019
 15 17  0  0  0  0  0  0  0  0999 V2000
  -34.6980    1.6864  -46.2267 O   0  0  0  0  0  0  0  0  0  0  0  0
  -36.1059    1.6538  -45.9847 C   0  0  0  0  0  0  0  0  0  0  0  0
  -36.3934    2.1751  -44.5752 C   0  0  0  0  0  0  0  0  0  0  0  0
  -36.0172    3.5927  -44.4913 N   0  0  0  0  0  0  0  0  0  0  0  0
  -37.8851    2.0243  -44.2700 C   0  0  0  0  0  0  0  0  0  0  0  0
  -38.2417    0.5386  -44.1902 C   0  0  0  0  0  0  0  0  0  0  0  0
  -39.7332    0.3878  -43.8850 C   0  0  0  0  0  0  0  0  0  0  0  0
  -40.0509    1.0610  -42.5484 C   0  0  0  0  0  0  0  0  0  0  0  0
  -39.6943    2.5468  -42.6282 C   0  0  0  0  0  0  0  0  0  0  0  0
  -40.5118    3.2084  -43.7394 C   0  0  0  0  0  0  0  0  0  0  0  0
  -40.1941    2.5352  -45.0761 C   0  0  0  0  0  0  0  0  0  0  0  0
  -40.5507    1.0494  -44.9963 C   0  0  0  0  0  0  0  0  0  0  0  0
  -38.7024    2.6860  -45.3813 C   0  0  0  0  0  0  0  0  0  0  0  0
  -38.2027    2.6975  -42.9333 C   0  0  0  0  0  0  0  0  0  0  0  0
  -36.6566    4.4754  -45.8089 X   0  0  0  0  0  0  0  0  0  0  0  0
  1  2  1  0  0  0  0
  2  3  1  0  0  0  0
  3  4  1  0  0  0  0
  3  5  1  0  0  0  0
  4 15  1  0  0  0  0
  5  6  1  0  0  0  0
  5 13  1  0  0  0  0
  5 14  1  0  0  0  0
  6  7  1  0  0  0  0
  7  8  1  0  0  0  0
  7 12  1  0  0  0  0
  8  9  1  0  0  0  0
  9 10  1  0  0  0  0
  9 14  1  0  0  0  0
 10 11  1  0  0  0  0
 11 12  1  0  0  0  0
 11 13  1  0  0  0  0
M  END
> <Index>
14262

> <PropertyFieldDistance>
nan

$$$$
13940442
BBcorina  12272117083D 1   1.00000     0.00000 
CORINA 4.3.0 0026  30.10.2019
 14 14  0  0  0  0  0  0  0  0999 V2000
  -34.4721   -1.0789  -46.2582 C   0  0  0  0  0  0  0  0  0  0  0  0
  -35.0391   -0.1462  -47.3303 C   0  0  0  0  0  0  0  0  0  0  0  0
  -35.6055   -0.9783  -48.4826 C   0  0  0  0  0  0  0  0  0  0  0  0
  -36.1528    0.7101  -46.7240 C   0  0  0  0  0  0  0  0  0  0  0  0
  -35.5626    1.6327  -45.6558 C   0  0  0  0  0  0  0  0  0  0  0  0
  -36.6762    2.4889  -45.0496 C   0  0  0  0  0  0  0  0  0  0  0  0
  -36.1095    3.3749  -44.0239 N   0  0  0  0  0  0  0  0  0  0  0  0
  -37.0946    4.3728  -43.5877 C   0  0  0  0  0  0  0  0  0  0  0  0
  -36.5218    5.1812  -42.4215 C   0  0  0  0  0  0  0  0  0  0  0  0
  -35.2318    5.8729  -42.8712 C   0  0  0  0  0  0  0  0  0  0  0  0
  -34.2409    4.8155  -43.3658 C   0  0  0  0  0  0  0  0  0  0  0  0
  -34.8799    4.0177  -44.5048 C   0  0  0  0  0  0  0  0  0  0  0  0
  -34.6469    6.6045  -41.7397 N   0  0  0  0  0  0  0  0  0  0  0  0
  -34.1782    5.5321  -40.4929 X   0  0  0  0  0  0  0  0  0  0  0  0
  1  2  1  0  0  0  0
  2  3  1  0  0  0  0
  2  4  1  0  0  0  0
  4  5  1  0  0  0  0
  5  6  1  0  0  0  0
  6  7  1  0  0  0  0
  7  8  1  0  0  0  0
  7 12  1  0  0  0  0
  8  9  1  0  0  0  0
  9 10  1  0  0  0  0
 10 11  1  0  0  0  0
 10 13  1  0  0  0  0
 11 12  1  0  0  0  0
 13 14  1  0  0  0  0
M  END
> <Index>
14269

> <PropertyFieldDistance>
nan

$$$$
11765390
BBcorina  12272117083D 1   1.00000     0.00000 
CORINA 4.3.0 0026  30.10.2019
 12 13  0  0  0  0  0  0  0  0999 V2000
  -36.0173    3.5927  -44.4913 N   0  0  0  0  0  0  0  0  0  0  0  0
  -36.3933    2.1752  -44.5752 C   0  0  0  0  0  0  0  0  0  0  0  0
  -36.1059    1.6538  -45.9847 C   0  0  0  0  0  0  0  0  0  0  0  0
  -36.6090    0.1951  -46.1395 C   0  0  0  0  0  0  0  0  0  0  0  0
  -35.7011   -0.3434  -47.2753 C   0  0  0  0  0  0  0  0  0  0  0  0
  -34.4973    0.6031  -47.2586 C   0  0  0  0  0  0  0  0  0  0  0  0
  -33.1850   -0.1812  -47.0818 C   0  0  0  0  0  0  0  0  0  0  0  0
  -32.1053    0.7436  -47.6851 C   0  0  0  0  0  0  0  0  0  0  0  0
  -32.8290    1.6870  -48.6629 C   0  0  0  0  0  0  0  0  0  0  0  0
  -34.3247    1.3044  -48.6215 C   0  0  0  0  0  0  0  0  0  0  0  0
  -34.6807    1.5497  -46.2074 O   0  0  0  0  0  0  0  0  0  0  0  0
  -36.3229    4.2162  -42.9286 X   0  0  0  0  0  0  0  0  0  0  0  0
  1  2  1  0  0  0  0
  1 12  1  0  0  0  0
  2  3  1  0  0  0  0
  3  4  1  0  0  0  0
  3 11  1  0  0  0  0
  4  5  1  0  0  0  0
  5  6  1  0  0  0  0
  6  7  1  0  0  0  0
  6 10  1  0  0  0  0
  6 11  1  0  0  0  0
  7  8  1  0  0  0  0
  8  9  1  0  0  0  0
  9 10  1  0  0  0  0
M  END
> <Index>
14277

> <PropertyFieldDistance>
nan

$$$$
13456070
BBcorina  12272117083D 1   1.00000     0.00000 
CORINA 4.3.0 0026  30.10.2019
 11 12  0  0  0  0  0  0  0  0999 V2000
  -34.9458    5.9613  -41.0299 N   0  0  0  0  0  0  0  0  0  0  0  0
  -35.2739    4.9389  -42.0324 C   0  0  0  0  0  0  0  0  0  0  0  0
  -36.6295    5.2600  -42.6677 C   0  0  0  0  0  0  0  0  0  0  0  0
  -37.0811    4.0817  -43.5371 C   0  0  0  0  0  0  0  0  0  0  0  0
  -35.9860    3.7133  -44.4393 N   0  0  0  0  0  0  0  0  0  0  0  0
  -36.0632    2.9419  -45.6009 N   0  0  0  0  0  0  0  0  0  0  0  0
  -34.8598    2.8525  -46.1115 C   0  0  0  0  0  0  0  0  0  0  0  0
  -33.9796    3.5653  -45.2878 C   0  0  0  0  0  0  0  0  0  0  0  0
  -34.6954    4.0823  -44.2699 C   0  0  0  0  0  0  0  0  0  0  0  0
  -34.1953    4.9262  -43.1237 C   0  0  0  0  0  0  0  0  0  0  0  0
  -34.8682    7.5145  -41.7412 X   0  0  0  0  0  0  0  0  0  0  0  0
  1  2  1  0  0  0  0
  1 11  1  0  0  0  0
  2  3  1  0  0  0  0
  2 10  1  0  0  0  0
  3  4  1  0  0  0  0
  4  5  1  0  0  0  0
  5  6  1  0  0  0  0
  5  9  1  0  0  0  0
  6  7  2  0  0  0  0
  7  8  1  0  0  0  0
  8  9  2  0  0  0  0
  9 10  1  0  0  0  0
M  END
> <Index>
14280

> <PropertyFieldDistance>
nan

$$$$
15754540
BBcorina  12272117083D 1   1.00000     0.00000 
CORINA 4.3.0 0026  30.10.2019
 16 17  0  0  0  0  0  0  0  0999 V2000
  -36.4277    2.6265  -45.2577 C   0  0  0  0  0  0  0  0  0  0  0  0
  -35.9858    3.2989  -44.0286 N   0  0  0  0  0  0  0  0  0  0  0  0
  -37.0073    4.2389  -43.5462 C   0  0  0  0  0  0  0  0  0  0  0  0
  -36.5441    4.8577  -42.2252 C   0  0  0  0  0  0  0  0  0  0  0  0
  -35.2593    5.5407  -42.4312 N   0  0  0  0  0  0  0  0  0  0  0  0
  -34.2379    4.6008  -42.9137 C   0  0  0  0  0  0  0  0  0  0  0  0
  -34.7011    3.9819  -44.2346 C   0  0  0  0  0  0  0  0  0  0  0  0
  -34.8403    6.1784  -41.2655 C   0  0  0  0  0  0  0  0  0  0  0  0
  -33.6413    6.8823  -41.2602 C   0  0  0  0  0  0  0  0  0  0  0  0
  -33.2345    7.5123  -40.0978 C   0  0  0  0  0  0  0  0  0  0  0  0
  -34.0481    7.4152  -38.9704 C   0  0  0  0  0  0  0  0  0  0  0  0
  -33.6758    8.0366  -37.7719 N   0  0  0  0  0  0  0  0  0  0  0  0
  -35.2307    6.6954  -39.0500 C   0  0  0  0  0  0  0  0  0  0  0  0
  -36.1180    6.5840  -37.8371 C   0  0  0  0  0  0  0  0  0  0  0  0
  -35.5882    6.1072  -40.1759 N   0  0  0  0  0  0  0  0  0  0  0  0
  -32.3126    9.0684  -37.7312 X   0  0  0  0  0  0  0  0  0  0  0  0
  1  2  1  0  0  0  0
  2  3  1  0  0  0  0
  2  7  1  0  0  0  0
  3  4  1  0  0  0  0
  4  5  1  0  0  0  0
  5  6  1  0  0  0  0
  5  8  1  0  0  0  0
  6  7  1  0  0  0  0
  8  9  2  0  0  0  0
  8 15  1  0  0  0  0
  9 10  1  0  0  0  0
 10 11  2  0  0  0  0
 11 12  1  0  0  0  0
 11 13  1  0  0  0  0
 12 16  1  0  0  0  0
 13 14  1  0  0  0  0
 13 15  2  0  0  0  0
M  END
> <Index>
14319

> <PropertyFieldDistance>
nan

$$$$
14928084
BBcorina  12272117083D 1   1.00000     0.00000 
CORINA 4.3.0 0026  30.10.2019
 11 11  0  0  0  0  0  0  0  0999 V2000
  -38.1742    2.3057  -45.3177 F   0  0  0  0  0  0  0  0  0  0  0  0
  -36.9286    2.0501  -45.9010 C   0  0  0  0  0  0  0  0  0  0  0  0
  -36.6817    2.9924  -46.9052 F   0  0  0  0  0  0  0  0  0  0  0  0
  -35.8365    2.1442  -44.8336 C   0  0  0  0  0  0  0  0  0  0  0  0
  -35.7435    3.5278  -44.3489 N   0  0  0  0  0  0  0  0  0  0  0  0
  -36.8431    3.8369  -43.4241 C   0  0  0  0  0  0  0  0  0  0  0  0
  -36.7559    5.3063  -43.0052 C   0  0  0  0  0  0  0  0  0  0  0  0
  -35.4533    5.5563  -42.3725 N   0  0  0  0  0  0  0  0  0  0  0  0
  -34.3539    5.2472  -43.2973 C   0  0  0  0  0  0  0  0  0  0  0  0
  -34.4409    3.7778  -43.7162 C   0  0  0  0  0  0  0  0  0  0  0  0
  -35.3451    7.1669  -41.8082 X   0  0  0  0  0  0  0  0  0  0  0  0
  1  2  1  0  0  0  0
  2  3  1  0  0  0  0
  2  4  1  0  0  0  0
  4  5  1  0  0  0  0
  5  6  1  0  0  0  0
  5 10  1  0  0  0  0
  6  7  1  0  0  0  0
  7  8  1  0  0  0  0
  8  9  1  0  0  0  0
  8 11  1  0  0  0  0
  9 10  1  0  0  0  0
M  END
> <Index>
14331

> <PropertyFieldDistance>
nan

$$$$
11758080
BBcorina  12272117083D 1   1.00000     0.00000 
CORINA 4.3.0 0026  30.10.2019
 11 11  0  0  0  0  0  0  0  0999 V2000
  -36.0702    1.4831  -44.8227 C   0  0  0  0  0  0  0  0  0  0  0  0
  -36.3641    2.8011  -45.5418 C   0  0  0  0  0  0  0  0  0  0  0  0
  -36.0599    3.9257  -44.6469 N   0  0  0  0  0  0  0  0  0  0  0  0
  -36.9516    3.9252  -43.4788 C   0  0  0  0  0  0  0  0  0  0  0  0
  -38.4073    3.9692  -43.9479 C   0  0  0  0  0  0  0  0  0  0  0  0
  -36.6563    5.1533  -42.6145 C   0  0  0  0  0  0  0  0  0  0  0  0
  -35.2472    5.1285  -42.1978 N   0  0  0  0  0  0  0  0  0  0  0  0
  -34.3555    5.1289  -43.3660 C   0  0  0  0  0  0  0  0  0  0  0  0
  -34.6508    3.9008  -44.2302 C   0  0  0  0  0  0  0  0  0  0  0  0
  -33.7521    3.9193  -45.4683 C   0  0  0  0  0  0  0  0  0  0  0  0
  -34.8932    6.4375  -41.1561 X   0  0  0  0  0  0  0  0  0  0  0  0
  1  2  1  0  0  0  0
  2  3  1  0  0  0  0
  3  4  1  0  0  0  0
  3  9  1  0  0  0  0
  4  5  1  0  0  0  0
  4  6  1  0  0  0  0
  6  7  1  0  0  0  0
  7  8  1  0  0  0  0
  7 11  1  0  0  0  0
  8  9  1  0  0  0  0
  9 10  1  0  0  0  0
M  END
> <Index>
14338

> <PropertyFieldDistance>
nan

$$$$
9018040
BBcorina  12272117083D 1   1.00000     0.00000 
CORINA 4.3.0 0026  30.10.2019
 11 12  0  0  0  0  0  0  0  0999 V2000
  -35.9999    3.8419  -44.6205 N   0  0  0  0  0  0  0  0  0  0  0  0
  -37.0792    4.2273  -43.6857 C   0  0  0  0  0  0  0  0  0  0  0  0
  -36.4203    5.0032  -42.5301 C   0  0  0  0  0  0  0  0  0  0  0  0
  -34.9081    5.0034  -42.8516 C   0  0  0  0  0  0  0  0  0  0  0  0
  -34.7583    3.7907  -43.8067 C   0  0  0  0  0  0  0  0  0  0  0  0
  -34.1191    4.8068  -41.6329 N   0  0  0  0  0  0  0  0  0  0  0  0
  -33.8006    3.6331  -41.0600 C   0  0  0  0  0  0  0  0  0  0  0  0
  -33.0862    3.8830  -39.9927 N   0  0  0  0  0  0  0  0  0  0  0  0
  -32.9356    5.1989  -39.8476 C   0  0  0  0  0  0  0  0  0  0  0  0
  -33.5503    5.8071  -40.8277 N   0  0  0  0  0  0  0  0  0  0  0  0
  -36.3245    2.3246  -45.3392 X   0  0  0  0  0  0  0  0  0  0  0  0
  1  2  1  0  0  0  0
  1  5  1  0  0  0  0
  1 11  1  0  0  0  0
  2  3  1  0  0  0  0
  3  4  1  0  0  0  0
  4  5  1  0  0  0  0
  4  6  1  0  0  0  0
  6  7  1  0  0  0  0
  6 10  1  0  0  0  0
  7  8  2  0  0  0  0
  8  9  1  0  0  0  0
  9 10  2  0  0  0  0
M  END
> <Index>
14339

> <PropertyFieldDistance>
nan

$$$$
11745854
BBcorina  12272117083D 1   1.00000     0.00000 
CORINA 4.3.0 0026  30.10.2019
 13 14  0  0  0  0  0  0  0  0999 V2000
  -34.1602    9.2182  -39.2927 N   0  0  0  0  0  0  0  0  0  0  0  0
  -34.4318    8.0238  -39.9338 C   0  0  0  0  0  0  0  0  0  0  0  0
  -34.3886    6.8276  -39.3999 N   0  0  0  0  0  0  0  0  0  0  0  0
  -34.7003    5.9527  -40.2901 N   0  0  0  0  0  0  0  0  0  0  0  0
  -34.9527    6.5499  -41.4177 C   0  0  0  0  0  0  0  0  0  0  0  0
  -34.7850    7.8728  -41.2238 O   0  0  0  0  0  0  0  0  0  0  0  0
  -35.3535    5.8831  -42.7083 C   0  0  0  0  0  0  0  0  0  0  0  0
  -36.6588    5.1098  -42.5008 C   0  0  0  0  0  0  0  0  0  0  0  0
  -37.0292    4.3868  -43.7978 C   0  0  0  0  0  0  0  0  0  0  0  0
  -35.9482    3.4661  -44.1723 N   0  0  0  0  0  0  0  0  0  0  0  0
  -34.6961    4.1914  -44.4229 C   0  0  0  0  0  0  0  0  0  0  0  0
  -34.2549    4.9095  -43.1439 C   0  0  0  0  0  0  0  0  0  0  0  0
  -36.3903    2.5207  -45.5269 X   0  0  0  0  0  0  0  0  0  0  0  0
  1  2  1  0  0  0  0
  2  3  2  0  0  0  0
  2  6  1  0  0  0  0
  3  4  1  0  0  0  0
  4  5  2  0  0  0  0
  5  6  1  0  0  0  0
  5  7  1  0  0  0  0
  7  8  1  0  0  0  0
  7 12  1  0  0  0  0
  8  9  1  0  0  0  0
  9 10  1  0  0  0  0
 10 11  1  0  0  0  0
 10 13  1  0  0  0  0
 11 12  1  0  0  0  0
M  END
> <Index>
14343

> <PropertyFieldDistance>
nan

$$$$
11758086
BBcorina  12272117083D 1   1.00000     0.00000 
CORINA 4.3.0 0026  30.10.2019
 12 12  0  0  0  0  0  0  0  0999 V2000
  -36.3611    2.4252  -45.0197 C   0  0  0  0  0  0  0  0  0  0  0  0
  -35.9530    3.3098  -43.9201 N   0  0  0  0  0  0  0  0  0  0  0  0
  -37.0212    4.2619  -43.5860 C   0  0  0  0  0  0  0  0  0  0  0  0
  -36.5887    5.1099  -42.3875 C   0  0  0  0  0  0  0  0  0  0  0  0
  -35.3417    5.8154  -42.7143 N   0  0  0  0  0  0  0  0  0  0  0  0
  -34.2734    4.8631  -43.0484 C   0  0  0  0  0  0  0  0  0  0  0  0
  -34.7059    4.0152  -44.2469 C   0  0  0  0  0  0  0  0  0  0  0  0
  -33.6125    2.9954  -44.5718 C   0  0  0  0  0  0  0  0  0  0  0  0
  -33.8487    2.4228  -45.9708 C   0  0  0  0  0  0  0  0  0  0  0  0
  -32.2456    3.6810  -44.5254 C   0  0  0  0  0  0  0  0  0  0  0  0
  -33.6502    1.8626  -43.5441 C   0  0  0  0  0  0  0  0  0  0  0  0
  -34.8666    6.8450  -41.4344 X   0  0  0  0  0  0  0  0  0  0  0  0
  1  2  1  0  0  0  0
  2  3  1  0  0  0  0
  2  7  1  0  0  0  0
  3  4  1  0  0  0  0
  4  5  1  0  0  0  0
  5  6  1  0  0  0  0
  5 12  1  0  0  0  0
  6  7  1  0  0  0  0
  7  8  1  0  0  0  0
  8  9  1  0  0  0  0
  8 10  1  0  0  0  0
  8 11  1  0  0  0  0
M  END
> <Index>
14344

> <PropertyFieldDistance>
nan

$$$$
9864734
BBcorina  12272117083D 1   1.00000     0.00000 
CORINA 4.3.0 0026  30.10.2019
 12 13  0  0  0  0  0  0  0  0999 V2000
  -36.1940    5.5254  -40.0579 N   0  0  0  0  0  0  0  0  0  0  0  0
  -36.5808    4.4893  -41.0248 C   0  0  0  0  0  0  0  0  0  0  0  0
  -36.6414    5.0977  -42.4273 C   0  0  0  0  0  0  0  0  0  0  0  0
  -36.9305    3.9951  -43.4454 C   0  0  0  0  0  0  0  0  0  0  0  0
  -36.0007    4.1149  -44.5766 N   0  0  0  0  0  0  0  0  0  0  0  0
  -34.6431    3.8648  -44.1474 C   0  0  0  0  0  0  0  0  0  0  0  0
  -34.2897    4.8128  -42.9927 C   0  0  0  0  0  0  0  0  0  0  0  0
  -35.3522    5.7411  -42.7381 N   0  0  0  0  0  0  0  0  0  0  0  0
  -35.5681    6.8325  -43.6545 C   0  0  0  0  0  0  0  0  0  0  0  0
  -36.6905    6.4840  -44.6379 C   0  0  0  0  0  0  0  0  0  0  0  0
  -36.2235    5.2615  -45.4168 C   0  0  0  0  0  0  0  0  0  0  0  0
  -36.1142    4.8860  -38.4738 X   0  0  0  0  0  0  0  0  0  0  0  0
  1  2  1  0  0  0  0
  1 12  1  0  0  0  0
  2  3  1  0  0  0  0
  3  4  1  0  0  0  0
  3  8  1  0  0  0  0
  4  5  1  0  0  0  0
  5  6  1  0  0  0  0
  5 11  1  0  0  0  0
  6  7  1  0  0  0  0
  7  8  1  0  0  0  0
  8  9  1  0  0  0  0
  9 10  1  0  0  0  0
 10 11  1  0  0  0  0
M  END
> <Index>
14353

> <PropertyFieldDistance>
nan

$$$$
9162308
BBcorina  12272117083D 1   1.00000     0.00000 
CORINA 4.3.0 0026  30.10.2019
 10 10  0  0  0  0  0  0  0  0999 V2000
  -36.3017    2.2559  -44.8691 C   0  0  0  0  0  0  0  0  0  0  0  0
  -35.9946    3.5053  -44.1682 N   0  0  0  0  0  0  0  0  0  0  0  0
  -37.1054    4.2650  -43.6082 C   0  0  0  0  0  0  0  0  0  0  0  0
  -36.5995    5.2374  -42.5419 C   0  0  0  0  0  0  0  0  0  0  0  0
  -35.4362    6.0469  -43.1278 C   0  0  0  0  0  0  0  0  0  0  0  0
  -34.2553    5.1005  -43.3570 C   0  0  0  0  0  0  0  0  0  0  0  0
  -34.7182    3.8736  -44.0887 C   0  0  0  0  0  0  0  0  0  0  0  0
  -33.8845    3.1811  -44.6332 O   0  0  0  0  0  0  0  0  0  0  0  0
  -35.0472    7.1057  -42.1868 N   0  0  0  0  0  0  0  0  0  0  0  0
  -34.4486    6.4408  -40.7295 X   0  0  0  0  0  0  0  0  0  0  0  0
  1  2  1  0  0  0  0
  2  3  1  0  0  0  0
  2  7  1  0  0  0  0
  3  4  1  0  0  0  0
  4  5  1  0  0  0  0
  5  6  1  0  0  0  0
  5  9  1  0  0  0  0
  6  7  1  0  0  0  0
  7  8  2  0  0  0  0
  9 10  1  0  0  0  0
M  END
> <Index>
14356

> <PropertyFieldDistance>
nan

$$$$
9229170
BBcorina  12272117083D 1   1.00000     0.00000 
CORINA 4.3.0 0026  30.10.2019
 11 12  0  0  0  0  0  0  0  0999 V2000
  -33.3463    7.7038  -39.9391 O   0  0  0  0  0  0  0  0  0  0  0  0
  -33.4846    6.8030  -41.0398 C   0  0  0  0  0  0  0  0  0  0  0  0
  -34.8698    6.1548  -40.9974 C   0  0  0  0  0  0  0  0  0  0  0  0
  -34.9351    4.6392  -40.7948 C   0  0  0  0  0  0  0  0  0  0  0  0
  -35.2579    5.2435  -42.1601 C   0  0  0  0  0  0  0  0  0  0  0  0
  -36.7220    5.2455  -42.6121 C   0  0  0  0  0  0  0  0  0  0  0  0
  -36.9730    3.9961  -43.4633 C   0  0  0  0  0  0  0  0  0  0  0  0
  -36.0167    3.9631  -44.5768 N   0  0  0  0  0  0  0  0  0  0  0  0
  -34.6370    3.8105  -44.0982 C   0  0  0  0  0  0  0  0  0  0  0  0
  -34.2386    5.0484  -43.2872 C   0  0  0  0  0  0  0  0  0  0  0  0
  -36.4182    2.7314  -45.6931 X   0  0  0  0  0  0  0  0  0  0  0  0
  1  2  1  0  0  0  0
  2  3  1  0  0  0  0
  3  4  1  0  0  0  0
  3  5  1  0  0  0  0
  4  5  1  0  0  0  0
  5  6  1  0  0  0  0
  5 10  1  0  0  0  0
  6  7  1  0  0  0  0
  7  8  1  0  0  0  0
  8  9  1  0  0  0  0
  8 11  1  0  0  0  0
  9 10  1  0  0  0  0
M  END
> <Index>
14358

> <PropertyFieldDistance>
nan

$$$$
12914252
BBcorina  12272117083D 1   1.00000     0.00000 
CORINA 4.3.0 0026  30.10.2019
 12 13  0  0  0  0  0  0  0  0999 V2000
  -37.0558    4.9982  -41.2173 N   0  0  0  0  0  0  0  0  0  0  0  0
  -36.4383    5.0650  -42.5486 C   0  0  0  0  0  0  0  0  0  0  0  0
  -37.0857    4.0494  -43.5132 C   0  0  0  0  0  0  0  0  0  0  0  0
  -35.9904    3.5512  -44.3535 N   0  0  0  0  0  0  0  0  0  0  0  0
  -36.1781    2.8469  -45.6243 C   0  0  0  0  0  0  0  0  0  0  0  0
  -36.2705    1.3419  -45.3647 C   0  0  0  0  0  0  0  0  0  0  0  0
  -36.3528    0.4187  -46.5820 C   0  0  0  0  0  0  0  0  0  0  0  0
  -37.5883    0.6448  -45.7084 C   0  0  0  0  0  0  0  0  0  0  0  0
  -34.7928    3.8289  -43.8100 C   0  0  0  0  0  0  0  0  0  0  0  0
  -33.7230    3.5276  -44.2955 O   0  0  0  0  0  0  0  0  0  0  0  0
  -34.9735    4.5716  -42.5046 C   0  0  0  0  0  0  0  0  0  0  0  0
  -36.8560    6.4727  -40.3745 X   0  0  0  0  0  0  0  0  0  0  0  0
  1  2  1  0  0  0  0
  1 12  1  0  0  0  0
  2  3  1  0  0  0  0
  2 11  1  0  0  0  0
  3  4  1  0  0  0  0
  4  5  1  0  0  0  0
  4  9  1  0  0  0  0
  5  6  1  0  0  0  0
  6  7  1  0  0  0  0
  6  8  1  0  0  0  0
  7  8  1  0  0  0  0
  9 10  2  0  0  0  0
  9 11  1  0  0  0  0
M  END
> <Index>
14363

> <PropertyFieldDistance>
nan

$$$$
8962142
BBcorina  12272117083D 1   1.00000     0.00000 
CORINA 4.3.0 0026  30.10.2019
 13 13  0  0  0  0  0  0  0  0999 V2000
  -34.7492    5.4954  -40.3149 C   0  0  0  0  0  0  0  0  0  0  0  0
  -34.9460    6.5589  -41.3971 C   0  0  0  0  0  0  0  0  0  0  0  0
  -35.9968    7.4908  -40.9807 N   0  0  0  0  0  0  0  0  0  0  0  0
  -35.6935    8.5382  -40.1885 C   0  0  0  0  0  0  0  0  0  0  0  0
  -34.5507    8.7092  -39.8206 O   0  0  0  0  0  0  0  0  0  0  0  0
  -36.7746    9.4968  -39.7603 C   0  0  0  0  0  0  0  0  0  0  0  0
  -35.3535    5.8833  -42.7079 C   0  0  0  0  0  0  0  0  0  0  0  0
  -36.6585    5.1099  -42.5008 C   0  0  0  0  0  0  0  0  0  0  0  0
  -37.0291    4.3869  -43.7977 C   0  0  0  0  0  0  0  0  0  0  0  0
  -35.9480    3.4664  -44.1723 N   0  0  0  0  0  0  0  0  0  0  0  0
  -34.6958    4.1916  -44.4226 C   0  0  0  0  0  0  0  0  0  0  0  0
  -34.2559    4.9088  -43.1442 C   0  0  0  0  0  0  0  0  0  0  0  0
  -36.3899    2.5211  -45.5270 X   0  0  0  0  0  0  0  0  0  0  0  0
  1  2  1  0  0  0  0
  2  3  1  0  0  0  0
  2  7  1  0  0  0  0
  3  4  1  0  0  0  0
  4  5  2  0  0  0  0
  4  6  1  0  0  0  0
  7  8  1  0  0  0  0
  7 12  1  0  0  0  0
  8  9  1  0  0  0  0
  9 10  1  0  0  0  0
 10 11  1  0  0  0  0
 10 13  1  0  0  0  0
 11 12  1  0  0  0  0
M  END
> <Index>
14366

> <PropertyFieldDistance>
nan

$$$$
7284168
BBcorina  12272117083D 1   1.00000     0.00000 
CORINA 4.3.0 0026  30.10.2019
 13 13  0  0  0  0  0  0  0  0999 V2000
  -34.6278    5.5605  -40.4255 O   0  0  0  0  0  0  0  0  0  0  0  0
  -34.9459    6.5588  -41.3972 C   0  0  0  0  0  0  0  0  0  0  0  0
  -35.3535    5.8832  -42.7080 C   0  0  0  0  0  0  0  0  0  0  0  0
  -36.6585    5.1099  -42.5008 C   0  0  0  0  0  0  0  0  0  0  0  0
  -37.0291    4.3869  -43.7977 C   0  0  0  0  0  0  0  0  0  0  0  0
  -35.9480    3.4663  -44.1724 N   0  0  0  0  0  0  0  0  0  0  0  0
  -34.6958    4.1917  -44.4226 C   0  0  0  0  0  0  0  0  0  0  0  0
  -34.2559    4.9088  -43.1442 C   0  0  0  0  0  0  0  0  0  0  0  0
  -33.7214    7.4438  -41.6387 C   0  0  0  0  0  0  0  0  0  0  0  0
  -33.9901    8.3373  -42.6812 F   0  0  0  0  0  0  0  0  0  0  0  0
  -33.4271    8.1608  -40.4741 F   0  0  0  0  0  0  0  0  0  0  0  0
  -32.6273    6.6423  -41.9820 F   0  0  0  0  0  0  0  0  0  0  0  0
  -36.3899    2.5211  -45.5270 X   0  0  0  0  0  0  0  0  0  0  0  0
  1  2  1  0  0  0  0
  2  3  1  0  0  0  0
  2  9  1  0  0  0  0
  3  4  1  0  0  0  0
  3  8  1  0  0  0  0
  4  5  1  0  0  0  0
  5  6  1  0  0  0  0
  6  7  1  0  0  0  0
  6 13  1  0  0  0  0
  7  8  1  0  0  0  0
  9 10  1  0  0  0  0
  9 11  1  0  0  0  0
  9 12  1  0  0  0  0
M  END
> <Index>
14385

> <PropertyFieldDistance>
nan

$$$$
7116468
BBcorina  12272117083D 1   1.00000     0.00000 
CORINA 4.3.0 0026  30.10.2019
 10 10  0  0  0  0  0  0  0  0999 V2000
  -36.1059    1.6538  -45.9847 C   0  0  0  0  0  0  0  0  0  0  0  0
  -36.3934    2.1751  -44.5752 C   0  0  0  0  0  0  0  0  0  0  0  0
  -36.0172    3.5927  -44.4913 N   0  0  0  0  0  0  0  0  0  0  0  0
  -37.8850    2.0243  -44.2699 C   0  0  0  0  0  0  0  0  0  0  0  0
  -38.1745    2.5457  -42.8590 C   0  0  0  0  0  0  0  0  0  0  0  0
  -39.6530    2.3186  -42.5330 C   0  0  0  0  0  0  0  0  0  0  0  0
  -39.9575    0.9276  -42.6525 O   0  0  0  0  0  0  0  0  0  0  0  0
  -39.7510    0.3955  -43.9627 C   0  0  0  0  0  0  0  0  0  0  0  0
  -38.2765    0.5454  -44.3461 C   0  0  0  0  0  0  0  0  0  0  0  0
  -34.3881    3.7665  -44.0017 X   0  0  0  0  0  0  0  0  0  0  0  0
  1  2  1  0  0  0  0
  2  3  1  0  0  0  0
  2  4  1  0  0  0  0
  3 10  1  0  0  0  0
  4  5  1  0  0  0  0
  4  9  1  0  0  0  0
  5  6  1  0  0  0  0
  6  7  1  0  0  0  0
  7  8  1  0  0  0  0
  8  9  1  0  0  0  0
M  END
> <Index>
14403

> <PropertyFieldDistance>
nan

$$$$
10742358
BBcorina  12272117083D 1   1.00000     0.00000 
CORINA 4.3.0 0026  30.10.2019
 14 15  0  0  0  0  0  0  0  0999 V2000
  -39.1817    2.0292  -47.0399 F   0  0  0  0  0  0  0  0  0  0  0  0
  -37.9491    1.8489  -46.5171 C   0  0  0  0  0  0  0  0  0  0  0  0
  -37.1266    0.8616  -47.0304 C   0  0  0  0  0  0  0  0  0  0  0  0
  -35.8618    0.6818  -46.4887 C   0  0  0  0  0  0  0  0  0  0  0  0
  -35.4659    1.5025  -45.4473 C   0  0  0  0  0  0  0  0  0  0  0  0
  -36.3433    2.4750  -44.9799 C   0  0  0  0  0  0  0  0  0  0  0  0
  -37.5435    2.6172  -45.5215 N   0  0  0  0  0  0  0  0  0  0  0  0
  -35.9570    3.3055  -43.9343 N   0  0  0  0  0  0  0  0  0  0  0  0
  -37.0243    4.2572  -43.5959 C   0  0  0  0  0  0  0  0  0  0  0  0
  -36.5920    5.0975  -42.3919 C   0  0  0  0  0  0  0  0  0  0  0  0
  -35.3436    5.8031  -42.7134 N   0  0  0  0  0  0  0  0  0  0  0  0
  -34.2762    4.8513  -43.0518 C   0  0  0  0  0  0  0  0  0  0  0  0
  -34.7086    4.0110  -44.2557 C   0  0  0  0  0  0  0  0  0  0  0  0
  -34.8684    6.8246  -41.4269 X   0  0  0  0  0  0  0  0  0  0  0  0
  1  2  1  0  0  0  0
  2  3  2  0  0  0  0
  2  7  1  0  0  0  0
  3  4  1  0  0  0  0
  4  5  2  0  0  0  0
  5  6  1  0  0  0  0
  6  7  2  0  0  0  0
  6  8  1  0  0  0  0
  8  9  1  0  0  0  0
  8 13  1  0  0  0  0
  9 10  1  0  0  0  0
 10 11  1  0  0  0  0
 11 12  1  0  0  0  0
 11 14  1  0  0  0  0
 12 13  1  0  0  0  0
M  END
> <Index>
14408

> <PropertyFieldDistance>
nan

$$$$
6742472
BBcorina  12272117083D 1   1.00000     0.00000 
CORINA 4.3.0 0026  30.10.2019
 11 11  0  0  0  0  0  0  0  0999 V2000
  -36.3587    2.2488  -44.7148 C   0  0  0  0  0  0  0  0  0  0  0  0
  -35.9937    3.5638  -44.1821 N   0  0  0  0  0  0  0  0  0  0  0  0
  -36.9710    4.4563  -43.8664 C   0  0  0  0  0  0  0  0  0  0  0  0
  -36.6612    5.6772  -43.3727 C   0  0  0  0  0  0  0  0  0  0  0  0
  -38.0381    6.8994  -42.9412 Br  0  0  0  0  0  0  0  0  0  0  0  0
  -35.3187    6.0367  -43.1805 C   0  0  0  0  0  0  0  0  0  0  0  0
  -34.3351    5.1408  -43.4974 C   0  0  0  0  0  0  0  0  0  0  0  0
  -32.9873    5.4743  -43.3146 N   0  0  0  0  0  0  0  0  0  0  0  0
  -34.6950    3.8731  -44.0052 C   0  0  0  0  0  0  0  0  0  0  0  0
  -33.8293    3.0603  -44.2883 O   0  0  0  0  0  0  0  0  0  0  0  0
  -32.5632    7.0094  -42.6922 X   0  0  0  0  0  0  0  0  0  0  0  0
  1  2  1  0  0  0  0
  2  3  1  0  0  0  0
  2  9  1  0  0  0  0
  3  4  2  0  0  0  0
  4  5  1  0  0  0  0
  4  6  1  0  0  0  0
  6  7  2  0  0  0  0
  7  8  1  0  0  0  0
  7  9  1  0  0  0  0
  8 11  1  0  0  0  0
  9 10  2  0  0  0  0
M  END
> <Index>
14447

> <PropertyFieldDistance>
nan

$$$$
12297800
BBcorina  12272117083D 1   1.00000     0.00000 
CORINA 4.3.0 0026  30.10.2019
 12 12  0  0  0  0  0  0  0  0999 V2000
  -36.0051    0.7526  -46.6712 N   0  0  0  0  0  0  0  0  0  0  0  0
  -35.8041    1.9335  -46.0534 C   0  0  0  0  0  0  0  0  0  0  0  0
  -35.0508    2.7511  -46.5382 O   0  0  0  0  0  0  0  0  0  0  0  0
  -36.5153    2.2379  -44.7601 C   0  0  0  0  0  0  0  0  0  0  0  0
  -36.1304    3.5765  -44.2930 N   0  0  0  0  0  0  0  0  0  0  0  0
  -36.9747    4.0050  -43.1705 C   0  0  0  0  0  0  0  0  0  0  0  0
  -36.6444    5.4542  -42.8061 C   0  0  0  0  0  0  0  0  0  0  0  0
  -35.1650    5.5549  -42.4241 C   0  0  0  0  0  0  0  0  0  0  0  0
  -34.3093    5.0572  -43.5922 C   0  0  0  0  0  0  0  0  0  0  0  0
  -34.7073    3.6195  -43.9337 C   0  0  0  0  0  0  0  0  0  0  0  0
  -34.8281    6.9540  -42.1298 N   0  0  0  0  0  0  0  0  0  0  0  0
  -35.2135    7.9683  -43.4514 X   0  0  0  0  0  0  0  0  0  0  0  0
  1  2  1  0  0  0  0
  2  3  2  0  0  0  0
  2  4  1  0  0  0  0
  4  5  1  0  0  0  0
  5  6  1  0  0  0  0
  5 10  1  0  0  0  0
  6  7  1  0  0  0  0
  7  8  1  0  0  0  0
  8  9  1  0  0  0  0
  8 11  1  0  0  0  0
  9 10  1  0  0  0  0
 11 12  1  0  0  0  0
M  END
> <Index>
14454

> <PropertyFieldDistance>
nan

$$$$
10436152
BBcorina  12272117083D 1   1.00000     0.00000 
CORINA 4.3.0 0026  30.10.2019
 12 12  0  0  0  0  0  0  0  0999 V2000
  -35.5009    8.4769  -39.4086 C   0  0  0  0  0  0  0  0  0  0  0  0
  -36.1747    7.8196  -40.9593 S   0  0  0  0  0  0  0  0  0  0  0  0
  -36.1394    8.8475  -41.9399 O   0  0  0  0  0  0  0  0  0  0  0  0
  -37.4073    7.1709  -40.6784 O   0  0  0  0  0  0  0  0  0  0  0  0
  -34.9453    6.5600  -41.3980 C   0  0  0  0  0  0  0  0  0  0  0  0
  -35.3535    5.8833  -42.7079 C   0  0  0  0  0  0  0  0  0  0  0  0
  -36.6585    5.1099  -42.5008 C   0  0  0  0  0  0  0  0  0  0  0  0
  -37.0291    4.3869  -43.7977 C   0  0  0  0  0  0  0  0  0  0  0  0
  -35.9480    3.4664  -44.1723 N   0  0  0  0  0  0  0  0  0  0  0  0
  -34.6958    4.1916  -44.4226 C   0  0  0  0  0  0  0  0  0  0  0  0
  -34.2559    4.9088  -43.1442 C   0  0  0  0  0  0  0  0  0  0  0  0
  -36.3899    2.5211  -45.5270 X   0  0  0  0  0  0  0  0  0  0  0  0
  1  2  1  0  0  0  0
  2  3  2  0  0  0  0
  2  4  2  0  0  0  0
  2  5  1  0  0  0  0
  5  6  1  0  0  0  0
  6  7  1  0  0  0  0
  6 11  1  0  0  0  0
  7  8  1  0  0  0  0
  8  9  1  0  0  0  0
  9 10  1  0  0  0  0
  9 12  1  0  0  0  0
 10 11  1  0  0  0  0
M  END
> <Index>
14461

> <PropertyFieldDistance>
nan

$$$$
6363216
BBcorina  12272117083D 1   1.00000     0.00000 
CORINA 4.3.0 0026  30.10.2019
 15 16  0  0  0  0  0  0  0  0999 V2000
  -34.6726   -0.5965  -47.5340 C   0  0  0  0  0  0  0  0  0  0  0  0
  -35.4782   -0.8495  -46.2581 C   0  0  0  0  0  0  0  0  0  0  0  0
  -36.1855    0.4176  -45.8511 C   0  0  0  0  0  0  0  0  0  0  0  0
  -37.3820    0.6877  -46.2853 N   0  0  0  0  0  0  0  0  0  0  0  0
  -37.7965    2.1845  -45.5955 S   0  0  0  0  0  0  0  0  0  0  0  0
  -36.3071    2.3621  -44.7474 C   0  0  0  0  0  0  0  0  0  0  0  0
  -35.6138    1.2842  -45.0475 N   0  0  0  0  0  0  0  0  0  0  0  0
  -35.9235    3.4096  -43.9296 N   0  0  0  0  0  0  0  0  0  0  0  0
  -37.0222    4.3867  -43.7691 C   0  0  0  0  0  0  0  0  0  0  0  0
  -36.8392    5.1007  -42.4536 C   0  0  0  0  0  0  0  0  0  0  0  0
  -36.0338    6.4005  -42.6082 C   0  0  0  0  0  0  0  0  0  0  0  0
  -34.8856    6.2484  -43.5305 N   0  0  0  0  0  0  0  0  0  0  0  0
  -34.1642    5.0062  -43.3663 C   0  0  0  0  0  0  0  0  0  0  0  0
  -34.7184    3.9723  -44.3671 C   0  0  0  0  0  0  0  0  0  0  0  0
  -33.8299    7.5892  -43.4210 X   0  0  0  0  0  0  0  0  0  0  0  0
  1  2  1  0  0  0  0
  2  3  1  0  0  0  0
  3  4  2  0  0  0  0
  3  7  1  0  0  0  0
  4  5  1  0  0  0  0
  5  6  1  0  0  0  0
  6  7  2  0  0  0  0
  6  8  1  0  0  0  0
  8  9  1  0  0  0  0
  8 14  1  0  0  0  0
  9 10  1  0  0  0  0
 10 11  1  0  0  0  0
 11 12  1  0  0  0  0
 12 13  1  0  0  0  0
 12 15  1  0  0  0  0
 13 14  1  0  0  0  0
M  END
> <Index>
14470

> <PropertyFieldDistance>
nan

$$$$
6726096
BBcorina  12272117083D 1   1.00000     0.00000 
CORINA 4.3.0 0026  30.10.2019
 14 15  0  0  0  0  0  0  0  0999 V2000
  -34.2525    0.7016  -47.9880 Cl  0  0  0  0  0  0  0  0  0  0  0  0
  -35.5476    1.3984  -47.0657 C   0  0  0  0  0  0  0  0  0  0  0  0
  -36.8435    1.3522  -47.5489 C   0  0  0  0  0  0  0  0  0  0  0  0
  -37.8785    1.9012  -46.8143 C   0  0  0  0  0  0  0  0  0  0  0  0
  -37.6204    2.5075  -45.6008 C   0  0  0  0  0  0  0  0  0  0  0  0
  -36.3199    2.5611  -45.1147 C   0  0  0  0  0  0  0  0  0  0  0  0
  -35.2828    2.0041  -45.8514 C   0  0  0  0  0  0  0  0  0  0  0  0
  -36.0560    3.1742  -43.8879 N   0  0  0  0  0  0  0  0  0  0  0  0
  -37.1180    4.1423  -43.5400 C   0  0  0  0  0  0  0  0  0  0  0  0
  -36.3866    5.2744  -42.7764 C   0  0  0  0  0  0  0  0  0  0  0  0
  -35.0440    5.3571  -43.5493 C   0  0  0  0  0  0  0  0  0  0  0  0
  -34.7647    3.8851  -43.9193 C   0  0  0  0  0  0  0  0  0  0  0  0
  -33.9797    5.8865  -42.6862 N   0  0  0  0  0  0  0  0  0  0  0  0
  -33.7900    4.9232  -41.2862 X   0  0  0  0  0  0  0  0  0  0  0  0
  1  2  1  0  0  0  0
  2  3  2  0  0  0  0
  2  7  1  0  0  0  0
  3  4  1  0  0  0  0
  4  5  2  0  0  0  0
  5  6  1  0  0  0  0
  6  7  2  0  0  0  0
  6  8  1  0  0  0  0
  8  9  1  0  0  0  0
  8 12  1  0  0  0  0
  9 10  1  0  0  0  0
 10 11  1  0  0  0  0
 11 12  1  0  0  0  0
 11 13  1  0  0  0  0
 13 14  1  0  0  0  0
M  END
> <Index>
14490

> <PropertyFieldDistance>
nan

$$$$
8304942
BBcorina  12272117083D 1   1.00000     0.00000 
CORINA 4.3.0 0026  30.10.2019
 14 15  0  0  0  0  0  0  0  0999 V2000
  -37.1733    0.5821  -49.0698 Cl  0  0  0  0  0  0  0  0  0  0  0  0
  -36.8444    1.3450  -47.5456 C   0  0  0  0  0  0  0  0  0  0  0  0
  -35.5463    1.4074  -47.0704 C   0  0  0  0  0  0  0  0  0  0  0  0
  -35.2818    2.0133  -45.8578 C   0  0  0  0  0  0  0  0  0  0  0  0
  -36.3202    2.5604  -45.1151 C   0  0  0  0  0  0  0  0  0  0  0  0
  -37.6230    2.4912  -45.5917 C   0  0  0  0  0  0  0  0  0  0  0  0
  -37.8809    1.8892  -46.8077 C   0  0  0  0  0  0  0  0  0  0  0  0
  -36.0555    3.1742  -43.8879 N   0  0  0  0  0  0  0  0  0  0  0  0
  -37.1172    4.1424  -43.5398 C   0  0  0  0  0  0  0  0  0  0  0  0
  -36.3879    5.2753  -42.7754 C   0  0  0  0  0  0  0  0  0  0  0  0
  -35.0431    5.3570  -43.5504 C   0  0  0  0  0  0  0  0  0  0  0  0
  -34.7641    3.8850  -43.9202 C   0  0  0  0  0  0  0  0  0  0  0  0
  -33.9783    5.8866  -42.6881 N   0  0  0  0  0  0  0  0  0  0  0  0
  -33.7759    7.5678  -42.9265 X   0  0  0  0  0  0  0  0  0  0  0  0
  1  2  1  0  0  0  0
  2  3  2  0  0  0  0
  2  7  1  0  0  0  0
  3  4  1  0  0  0  0
  4  5  2  0  0  0  0
  5  6  1  0  0  0  0
  5  8  1  0  0  0  0
  6  7  2  0  0  0  0
  8  9  1  0  0  0  0
  8 12  1  0  0  0  0
  9 10  1  0  0  0  0
 10 11  1  0  0  0  0
 11 12  1  0  0  0  0
 11 13  1  0  0  0  0
 13 14  1  0  0  0  0
M  END
> <Index>
14491

> <PropertyFieldDistance>
nan

$$$$
9434064
BBcorina  12272117083D 1   1.00000     0.00000 
CORINA 4.3.0 0026  30.10.2019
 14 15  0  0  0  0  0  0  0  0999 V2000
  -34.1366    0.6401  -48.0704 Br  0  0  0  0  0  0  0  0  0  0  0  0
  -35.5476    1.3986  -47.0655 C   0  0  0  0  0  0  0  0  0  0  0  0
  -36.8432    1.3519  -47.5487 C   0  0  0  0  0  0  0  0  0  0  0  0
  -37.8783    1.9012  -46.8143 C   0  0  0  0  0  0  0  0  0  0  0  0
  -37.6204    2.5075  -45.6008 C   0  0  0  0  0  0  0  0  0  0  0  0
  -36.3199    2.5611  -45.1147 C   0  0  0  0  0  0  0  0  0  0  0  0
  -35.2829    2.0041  -45.8516 C   0  0  0  0  0  0  0  0  0  0  0  0
  -36.0560    3.1742  -43.8879 N   0  0  0  0  0  0  0  0  0  0  0  0
  -37.1179    4.1423  -43.5400 C   0  0  0  0  0  0  0  0  0  0  0  0
  -36.3866    5.2744  -42.7764 C   0  0  0  0  0  0  0  0  0  0  0  0
  -35.0439    5.3570  -43.5492 C   0  0  0  0  0  0  0  0  0  0  0  0
  -34.7646    3.8852  -43.9193 C   0  0  0  0  0  0  0  0  0  0  0  0
  -33.9797    5.8865  -42.6862 N   0  0  0  0  0  0  0  0  0  0  0  0
  -33.7899    4.9232  -41.2862 X   0  0  0  0  0  0  0  0  0  0  0  0
  1  2  1  0  0  0  0
  2  3  2  0  0  0  0
  2  7  1  0  0  0  0
  3  4  1  0  0  0  0
  4  5  2  0  0  0  0
  5  6  1  0  0  0  0
  6  7  2  0  0  0  0
  6  8  1  0  0  0  0
  8  9  1  0  0  0  0
  8 12  1  0  0  0  0
  9 10  1  0  0  0  0
 10 11  1  0  0  0  0
 11 12  1  0  0  0  0
 11 13  1  0  0  0  0
 13 14  1  0  0  0  0
M  END
> <Index>
14493

> <PropertyFieldDistance>
nan

$$$$
7346098
BBcorina  12272117083D 1   1.00000     0.00000 
CORINA 4.3.0 0026  30.10.2019
 14 14  0  0  0  0  0  0  0  0999 V2000
  -36.3149   -0.2027  -48.9793 C   0  0  0  0  0  0  0  0  0  0  0  0
  -35.6408    0.5605  -47.9767 O   0  0  0  0  0  0  0  0  0  0  0  0
  -36.5143    1.1642  -47.0205 C   0  0  0  0  0  0  0  0  0  0  0  0
  -35.6886    1.9516  -46.0011 C   0  0  0  0  0  0  0  0  0  0  0  0
  -36.6099    2.5882  -44.9927 C   0  0  0  0  0  0  0  0  0  0  0  0
  -37.8088    2.4281  -45.0806 O   0  0  0  0  0  0  0  0  0  0  0  0
  -36.1015    3.3358  -43.9930 N   0  0  0  0  0  0  0  0  0  0  0  0
  -36.9868    3.9629  -43.0023 C   0  0  0  0  0  0  0  0  0  0  0  0
  -36.6789    5.4623  -42.9406 C   0  0  0  0  0  0  0  0  0  0  0  0
  -35.1857    5.6613  -42.6687 C   0  0  0  0  0  0  0  0  0  0  0  0
  -34.3686    5.0435  -43.8056 C   0  0  0  0  0  0  0  0  0  0  0  0
  -34.6513    3.5394  -43.8736 C   0  0  0  0  0  0  0  0  0  0  0  0
  -34.8920    7.0978  -42.5794 N   0  0  0  0  0  0  0  0  0  0  0  0
  -35.3910    7.9145  -43.9965 X   0  0  0  0  0  0  0  0  0  0  0  0
  1  2  1  0  0  0  0
  2  3  1  0  0  0  0
  3  4  1  0  0  0  0
  4  5  1  0  0  0  0
  5  6  2  0  0  0  0
  5  7  1  0  0  0  0
  7  8  1  0  0  0  0
  7 12  1  0  0  0  0
  8  9  1  0  0  0  0
  9 10  1  0  0  0  0
 10 11  1  0  0  0  0
 10 13  1  0  0  0  0
 11 12  1  0  0  0  0
 13 14  1  0  0  0  0
M  END
> <Index>
14507

> <PropertyFieldDistance>
nan

$$$$
17835396
BBcorina  12272117083D 1   1.00000     0.00000 
CORINA 4.3.0 0026  30.10.2019
 11 13  0  0  0  0  0  0  0  0999 V2000
  -35.9669    3.3564  -44.0161 N   0  0  0  0  0  0  0  0  0  0  0  0
  -36.9176    4.4855  -44.0708 C   0  0  0  0  0  0  0  0  0  0  0  0
  -35.9661    5.1774  -45.0600 C   0  0  0  0  0  0  0  0  0  0  0  0
  -34.9160    4.3074  -44.3772 C   0  0  0  0  0  0  0  0  0  0  0  0
  -34.1657    4.9595  -43.2064 C   0  0  0  0  0  0  0  0  0  0  0  0
  -32.6574    4.7350  -43.5441 C   0  0  0  0  0  0  0  0  0  0  0  0
  -32.4354    3.2058  -43.3344 C   0  0  0  0  0  0  0  0  0  0  0  0
  -33.1964    2.5336  -44.5000 C   0  0  0  0  0  0  0  0  0  0  0  0
  -33.8171    3.7480  -45.3171 C   0  0  0  0  0  0  0  0  0  0  0  0
  -32.6932    4.8275  -45.1115 C   0  0  0  0  0  0  0  0  0  0  0  0
  -35.7662    2.8013  -42.4113 X   0  0  0  0  0  0  0  0  0  0  0  0
  1  2  1  0  0  0  0
  1  4  1  0  0  0  0
  1 11  1  0  0  0  0
  2  3  1  0  0  0  0
  3  4  1  0  0  0  0
  4  5  1  0  0  0  0
  4  9  1  0  0  0  0
  5  6  1  0  0  0  0
  6  7  1  0  0  0  0
  6 10  1  0  0  0  0
  7  8  1  0  0  0  0
  8  9  1  0  0  0  0
  9 10  1  0  0  0  0
M  END
> <Index>
14515

> <PropertyFieldDistance>
nan

$$$$
16910850
BBcorina  12272117083D 1   1.00000     0.00000 
CORINA 4.3.0 0026  30.10.2019
  9  9  0  0  0  0  0  0  0  0999 V2000
  -35.5410    5.9743  -43.7242 C   0  0  0  0  0  0  0  0  0  0  0  0
  -35.5205    4.4674  -43.7325 C   0  0  0  0  0  0  0  0  0  0  0  0
  -35.5285    3.8666  -44.8790 C   0  0  0  0  0  0  0  0  0  0  0  0
  -35.5156    2.3755  -45.0470 C   0  0  0  0  0  0  0  0  0  0  0  0
  -35.0808    1.7007  -43.7442 C   0  0  0  0  0  0  0  0  0  0  0  0
  -35.9039    2.2925  -42.5931 C   0  0  0  0  0  0  0  0  0  0  0  0
  -35.4983    3.7567  -42.4109 C   0  0  0  0  0  0  0  0  0  0  0  0
  -35.3195    0.2537  -43.8290 N   0  0  0  0  0  0  0  0  0  0  0  0
  -36.9727   -0.0790  -44.1128 X   0  0  0  0  0  0  0  0  0  0  0  0
  1  2  1  0  0  0  0
  2  3  2  0  0  0  0
  2  7  1  0  0  0  0
  3  4  1  0  0  0  0
  4  5  1  0  0  0  0
  5  6  1  0  0  0  0
  5  8  1  0  0  0  0
  6  7  1  0  0  0  0
  8  9  1  0  0  0  0
M  END
> <Index>
14524

> <PropertyFieldDistance>
nan

$$$$
16789780
BBcorina  12272117083D 1   1.00000     0.00000 
CORINA 4.3.0 0026  30.10.2019
 11 11  0  0  0  0  0  0  0  0999 V2000
  -34.4013    5.9006  -42.1234 O   0  0  0  0  0  0  0  0  0  0  0  0
  -35.1785    5.4042  -43.2150 C   0  0  0  0  0  0  0  0  0  0  0  0
  -36.6262    5.0856  -42.7574 C   0  0  0  0  0  0  0  0  0  0  0  0
  -37.0460    4.0006  -43.7803 C   0  0  0  0  0  0  0  0  0  0  0  0
  -35.8242    3.1982  -44.0024 N   0  0  0  0  0  0  0  0  0  0  0  0
  -35.7596    2.7097  -45.3862 C   0  0  0  0  0  0  0  0  0  0  0  0
  -36.8490    1.6584  -45.6074 C   0  0  0  0  0  0  0  0  0  0  0  0
  -36.7815    1.1496  -47.0488 C   0  0  0  0  0  0  0  0  0  0  0  0
  -37.8275    0.1402  -47.2611 N   0  0  0  0  0  0  0  0  0  0  0  0
  -34.6508    4.0309  -43.6806 C   0  0  0  0  0  0  0  0  0  0  0  0
  -37.7874   -0.4560  -48.8633 X   0  0  0  0  0  0  0  0  0  0  0  0
  1  2  1  0  0  0  0
  2  3  1  0  0  0  0
  2 10  1  0  0  0  0
  3  4  1  0  0  0  0
  4  5  1  0  0  0  0
  5  6  1  0  0  0  0
  5 10  1  0  0  0  0
  6  7  1  0  0  0  0
  7  8  1  0  0  0  0
  8  9  1  0  0  0  0
  9 11  1  0  0  0  0
M  END
> <Index>
14527

> <PropertyFieldDistance>
nan

$$$$
12218994
BBcorina  12272117083D 1   1.00000     0.00000 
CORINA 4.3.0 0026  30.10.2019
  9  9  0  0  0  0  0  0  0  0999 V2000
  -36.3511    2.2197  -44.6625 C   0  0  0  0  0  0  0  0  0  0  0  0
  -36.0474    3.6486  -44.5075 N   0  0  0  0  0  0  0  0  0  0  0  0
  -37.0948    4.3295  -43.7244 C   0  0  0  0  0  0  0  0  0  0  0  0
  -36.4026    4.9957  -42.5168 C   0  0  0  0  0  0  0  0  0  0  0  0
  -34.9315    5.1341  -42.9899 C   0  0  0  0  0  0  0  0  0  0  0  0
  -34.7493    3.8437  -43.8272 C   0  0  0  0  0  0  0  0  0  0  0  0
  -33.6312    4.0266  -44.8555 C   0  0  0  0  0  0  0  0  0  0  0  0
  -33.5823    2.8542  -45.7394 N   0  0  0  0  0  0  0  0  0  0  0  0
  -32.3433    3.0181  -46.9065 X   0  0  0  0  0  0  0  0  0  0  0  0
  1  2  1  0  0  0  0
  2  3  1  0  0  0  0
  2  6  1  0  0  0  0
  3  4  1  0  0  0  0
  4  5  1  0  0  0  0
  5  6  1  0  0  0  0
  6  7  1  0  0  0  0
  7  8  1  0  0  0  0
  8  9  1  0  0  0  0
M  END
> <Index>
14530

> <PropertyFieldDistance>
nan

$$$$
8304566
BBcorina  12272117083D 1   1.00000     0.00000 
CORINA 4.3.0 0026  30.10.2019
 11 11  0  0  0  0  0  0  0  0999 V2000
  -36.9167    2.4558  -47.0046 C   0  0  0  0  0  0  0  0  0  0  0  0
  -36.1059    1.6538  -45.9847 C   0  0  0  0  0  0  0  0  0  0  0  0
  -36.3933    2.1751  -44.5752 C   0  0  0  0  0  0  0  0  0  0  0  0
  -36.0173    3.5926  -44.4913 N   0  0  0  0  0  0  0  0  0  0  0  0
  -36.4905    0.1628  -46.0741 C   0  0  0  0  0  0  0  0  0  0  0  0
  -36.6871   -0.2781  -47.4471 C   0  0  0  0  0  0  0  0  0  0  0  0
  -35.4056   -0.1480  -48.2956 C   0  0  0  0  0  0  0  0  0  0  0  0
  -35.2613    1.2864  -48.7268 C   0  0  0  0  0  0  0  0  0  0  0  0
  -34.3689    2.1021  -47.7719 C   0  0  0  0  0  0  0  0  0  0  0  0
  -34.6379    1.7917  -46.2849 C   0  0  0  0  0  0  0  0  0  0  0  0
  -36.3231    4.2163  -42.9287 X   0  0  0  0  0  0  0  0  0  0  0  0
  1  2  1  0  0  0  0
  2  3  1  0  0  0  0
  2  5  1  0  0  0  0
  2 10  1  0  0  0  0
  3  4  1  0  0  0  0
  4 11  1  0  0  0  0
  5  6  1  0  0  0  0
  6  7  1  0  0  0  0
  7  8  1  0  0  0  0
  8  9  1  0  0  0  0
  9 10  1  0  0  0  0
M  END
> <Index>
14538

> <PropertyFieldDistance>
nan

$$$$
16761684
BBcorina  12272117083D 1   1.00000     0.00000 
CORINA 4.3.0 0026  30.10.2019
 10 10  0  0  0  0  0  0  0  0999 V2000
  -37.2336    5.4139  -44.9133 C   0  0  0  0  0  0  0  0  0  0  0  0
  -37.0290    4.3869  -43.7977 C   0  0  0  0  0  0  0  0  0  0  0  0
  -36.6587    5.1099  -42.5008 C   0  0  0  0  0  0  0  0  0  0  0  0
  -35.3527    5.8838  -42.7075 C   0  0  0  0  0  0  0  0  0  0  0  0
  -34.2558    4.9088  -43.1443 C   0  0  0  0  0  0  0  0  0  0  0  0
  -33.0140    5.6505  -43.4007 N   0  0  0  0  0  0  0  0  0  0  0  0
  -34.6958    4.1916  -44.4227 C   0  0  0  0  0  0  0  0  0  0  0  0
  -33.6105    3.2021  -44.8513 C   0  0  0  0  0  0  0  0  0  0  0  0
  -35.9480    3.4664  -44.1723 N   0  0  0  0  0  0  0  0  0  0  0  0
  -33.2384    6.8136  -44.6339 X   0  0  0  0  0  0  0  0  0  0  0  0
  1  2  1  0  0  0  0
  2  3  1  0  0  0  0
  2  9  1  0  0  0  0
  3  4  1  0  0  0  0
  4  5  1  0  0  0  0
  5  6  1  0  0  0  0
  5  7  1  0  0  0  0
  6 10  1  0  0  0  0
  7  8  1  0  0  0  0
  7  9  1  0  0  0  0
M  END
> <Index>
14540

> <PropertyFieldDistance>
nan

$$$$
13828084
BBcorina  12272117083D 1   1.00000     0.00000 
CORINA 4.3.0 0026  30.10.2019
  9  9  0  0  0  0  0  0  0  0999 V2000
  -36.3099    2.2197  -44.9581 C   0  0  0  0  0  0  0  0  0  0  0  0
  -36.0452    3.4349  -44.1840 N   0  0  0  0  0  0  0  0  0  0  0  0
  -37.0871    4.3196  -43.6494 C   0  0  0  0  0  0  0  0  0  0  0  0
  -36.3861    5.1797  -42.5746 C   0  0  0  0  0  0  0  0  0  0  0  0
  -34.9180    5.1552  -43.0595 C   0  0  0  0  0  0  0  0  0  0  0  0
  -34.8169    3.8833  -43.8723 C   0  0  0  0  0  0  0  0  0  0  0  0
  -33.7786    3.3465  -44.1960 O   0  0  0  0  0  0  0  0  0  0  0  0
  -36.9154    6.5500  -42.5703 N   0  0  0  0  0  0  0  0  0  0  0  0
  -36.7747    7.2662  -44.1167 X   0  0  0  0  0  0  0  0  0  0  0  0
  1  2  1  0  0  0  0
  2  3  1  0  0  0  0
  2  6  1  0  0  0  0
  3  4  1  0  0  0  0
  4  5  1  0  0  0  0
  4  8  1  0  0  0  0
  5  6  1  0  0  0  0
  6  7  2  0  0  0  0
  8  9  1  0  0  0  0
M  END
> <Index>
14548

> <PropertyFieldDistance>
nan

$$$$
16623002
BBcorina  12272117083D 1   1.00000     0.00000 
CORINA 4.3.0 0026  30.10.2019
  9  9  0  0  0  0  0  0  0  0999 V2000
  -34.9138    2.8243  -45.3624 C   0  0  0  0  0  0  0  0  0  0  0  0
  -35.1146    2.2113  -43.9751 C   0  0  0  0  0  0  0  0  0  0  0  0
  -36.5464    1.6838  -43.8512 C   0  0  0  0  0  0  0  0  0  0  0  0
  -37.4657    2.7703  -43.9804 O   0  0  0  0  0  0  0  0  0  0  0  0
  -37.3229    3.7778  -42.9771 C   0  0  0  0  0  0  0  0  0  0  0  0
  -35.9222    4.3894  -43.0659 C   0  0  0  0  0  0  0  0  0  0  0  0
  -34.8781    3.2804  -42.9039 C   0  0  0  0  0  0  0  0  0  0  0  0
  -33.5317    3.8460  -43.0629 N   0  0  0  0  0  0  0  0  0  0  0  0
  -33.4635    4.8963  -44.4106 X   0  0  0  0  0  0  0  0  0  0  0  0
  1  2  1  0  0  0  0
  2  3  1  0  0  0  0
  2  7  1  0  0  0  0
  3  4  1  0  0  0  0
  4  5  1  0  0  0  0
  5  6  1  0  0  0  0
  6  7  1  0  0  0  0
  7  8  1  0  0  0  0
  8  9  1  0  0  0  0
M  END
> <Index>
14550

> <PropertyFieldDistance>
nan

$$$$
11950580
BBcorina  12272117083D 1   1.00000     0.00000 
CORINA 4.3.0 0026  30.10.2019
  8  8  0  0  0  0  0  0  0  0999 V2000
  -36.0172    3.5927  -44.4913 N   0  0  0  0  0  0  0  0  0  0  0  0
  -36.3933    2.1751  -44.5753 C   0  0  0  0  0  0  0  0  0  0  0  0
  -36.1059    1.6538  -45.9846 C   0  0  0  0  0  0  0  0  0  0  0  0
  -36.6039    0.1985  -46.1165 C   0  0  0  0  0  0  0  0  0  0  0  0
  -35.4836   -0.4573  -46.9691 C   0  0  0  0  0  0  0  0  0  0  0  0
  -34.2380    0.3093  -46.4576 C   0  0  0  0  0  0  0  0  0  0  0  0
  -34.6935    1.6513  -46.2232 O   0  0  0  0  0  0  0  0  0  0  0  0
  -36.3230    4.2163  -42.9287 X   0  0  0  0  0  0  0  0  0  0  0  0
  1  2  1  0  0  0  0
  1  8  1  0  0  0  0
  2  3  1  0  0  0  0
  3  4  1  0  0  0  0
  3  7  1  0  0  0  0
  4  5  1  0  0  0  0
  5  6  1  0  0  0  0
  6  7  1  0  0  0  0
M  END
> <Index>
14559

> <PropertyFieldDistance>
nan

$$$$
8593854
BBcorina  12272117083D 1   1.00000     0.00000 
CORINA 4.3.0 0026  30.10.2019
 11 11  0  0  0  0  0  0  0  0999 V2000
  -36.3495    2.3569  -44.9463 C   0  0  0  0  0  0  0  0  0  0  0  0
  -36.0375    3.6630  -44.3509 N   0  0  0  0  0  0  0  0  0  0  0  0
  -36.9514    3.9682  -43.2427 C   0  0  0  0  0  0  0  0  0  0  0  0
  -36.6926    5.3915  -42.7435 C   0  0  0  0  0  0  0  0  0  0  0  0
  -35.2387    5.5071  -42.2771 C   0  0  0  0  0  0  0  0  0  0  0  0
  -35.0006    4.5539  -41.1043 C   0  0  0  0  0  0  0  0  0  0  0  0
  -34.9568    6.9439  -41.8336 C   0  0  0  0  0  0  0  0  0  0  0  0
  -33.5608    7.0543  -41.3893 N   0  0  0  0  0  0  0  0  0  0  0  0
  -34.3074    5.1368  -43.4348 C   0  0  0  0  0  0  0  0  0  0  0  0
  -34.6363    3.7214  -43.9150 C   0  0  0  0  0  0  0  0  0  0  0  0
  -33.2029    8.6481  -40.8838 X   0  0  0  0  0  0  0  0  0  0  0  0
  1  2  1  0  0  0  0
  2  3  1  0  0  0  0
  2 10  1  0  0  0  0
  3  4  1  0  0  0  0
  4  5  1  0  0  0  0
  5  6  1  0  0  0  0
  5  7  1  0  0  0  0
  5  9  1  0  0  0  0
  7  8  1  0  0  0  0
  8 11  1  0  0  0  0
  9 10  1  0  0  0  0
M  END
> <Index>
14565

> <PropertyFieldDistance>
nan

$$$$
13270920
BBcorina  12272117083D 1   1.00000     0.00000 
CORINA 4.3.0 0026  30.10.2019
  9 10  0  0  0  0  0  0  0  0999 V2000
  -33.8367    4.3485  -42.8175 N   0  0  0  0  0  0  0  0  0  0  0  0
  -35.1887    3.8056  -43.0057 C   0  0  0  0  0  0  0  0  0  0  0  0
  -35.1677    2.2535  -43.0142 C   0  0  0  0  0  0  0  0  0  0  0  0
  -35.6951    1.9345  -44.4482 C   0  0  0  0  0  0  0  0  0  0  0  0
  -35.1120    3.0426  -45.2144 O   0  0  0  0  0  0  0  0  0  0  0  0
  -35.7249    4.1259  -44.4361 C   0  0  0  0  0  0  0  0  0  0  0  0
  -37.1866    3.6713  -44.4246 C   0  0  0  0  0  0  0  0  0  0  0  0
  -37.1686    2.3492  -44.4319 C   0  0  0  0  0  0  0  0  0  0  0  0
  -32.7689    3.7634  -44.0181 X   0  0  0  0  0  0  0  0  0  0  0  0
  1  2  1  0  0  0  0
  1  9  1  0  0  0  0
  2  3  1  0  0  0  0
  2  6  1  0  0  0  0
  3  4  1  0  0  0  0
  4  5  1  0  0  0  0
  4  8  1  0  0  0  0
  5  6  1  0  0  0  0
  6  7  1  0  0  0  0
  7  8  2  0  0  0  0
M  END
> <Index>
14571

> <PropertyFieldDistance>
nan

$$$$
12343828
BBcorina  12272117083D 1   1.00000     0.00000 
CORINA 4.3.0 0026  30.10.2019
  6  6  0  0  0  0  0  0  0  0999 V2000
  -35.4342    3.9808  -45.3789 C   0  0  0  0  0  0  0  0  0  0  0  0
  -35.2802    3.7760  -43.8705 C   0  0  0  0  0  0  0  0  0  0  0  0
  -36.5593    3.6470  -43.0409 C   0  0  0  0  0  0  0  0  0  0  0  0
  -35.6863    2.4169  -43.2970 C   0  0  0  0  0  0  0  0  0  0  0  0
  -34.9024    1.8948  -42.1697 N   0  0  0  0  0  0  0  0  0  0  0  0
  -34.8792    0.1850  -42.1791 X   0  0  0  0  0  0  0  0  0  0  0  0
  1  2  1  0  0  0  0
  2  3  1  0  0  0  0
  2  4  1  0  0  0  0
  3  4  1  0  0  0  0
  4  5  1  0  0  0  0
  5  6  1  0  0  0  0
M  END
> <Index>
14572

> <PropertyFieldDistance>
nan

$$$$
11985974
BBcorina  12272117083D 1   1.00000     0.00000 
CORINA 4.3.0 0026  30.10.2019
 12 12  0  0  0  0  0  0  0  0999 V2000
  -36.1086    7.0189  -41.2645 C   0  0  0  0  0  0  0  0  0  0  0  0
  -35.8120    5.9998  -42.3665 C   0  0  0  0  0  0  0  0  0  0  0  0
  -35.6196    6.7342  -43.6948 C   0  0  0  0  0  0  0  0  0  0  0  0
  -36.9928    5.0297  -42.4897 C   0  0  0  0  0  0  0  0  0  0  0  0
  -37.1243    4.3361  -43.7761 C   0  0  0  0  0  0  0  0  0  0  0  0
  -35.8934    3.5372  -44.0300 N   0  0  0  0  0  0  0  0  0  0  0  0
  -34.7674    4.3413  -44.4316 C   0  0  0  0  0  0  0  0  0  0  0  0
  -33.8094    4.8193  -43.3103 C   0  0  0  0  0  0  0  0  0  0  0  0
  -32.9931    6.0041  -43.8307 C   0  0  0  0  0  0  0  0  0  0  0  0
  -32.8519    3.6776  -42.9629 C   0  0  0  0  0  0  0  0  0  0  0  0
  -34.5538    5.2532  -42.0258 C   0  0  0  0  0  0  0  0  0  0  0  0
  -36.1933    2.2929  -45.1638 X   0  0  0  0  0  0  0  0  0  0  0  0
  1  2  1  0  0  0  0
  2  3  1  0  0  0  0
  2  4  1  0  0  0  0
  2 11  1  0  0  0  0
  4  5  1  0  0  0  0
  5  6  1  0  0  0  0
  6  7  1  0  0  0  0
  6 12  1  0  0  0  0
  7  8  1  0  0  0  0
  8  9  1  0  0  0  0
  8 10  1  0  0  0  0
  8 11  1  0  0  0  0
M  END
> <Index>
14581

> <PropertyFieldDistance>
nan

$$$$
16514352
BBcorina  12272117083D 1   1.00000     0.00000 
CORINA 4.3.0 0026  30.10.2019
 12 12  0  0  0  0  0  0  0  0999 V2000
  -37.9629    8.6063  -39.3339 O   0  0  0  0  0  0  0  0  0  0  0  0
  -36.7233    9.2780  -39.5668 C   0  0  0  0  0  0  0  0  0  0  0  0
  -35.6266    8.2457  -39.8362 C   0  0  0  0  0  0  0  0  0  0  0  0
  -35.9144    7.5513  -41.0515 O   0  0  0  0  0  0  0  0  0  0  0  0
  -34.9460    6.5589  -41.3971 C   0  0  0  0  0  0  0  0  0  0  0  0
  -35.3535    5.8833  -42.7079 C   0  0  0  0  0  0  0  0  0  0  0  0
  -36.6585    5.1099  -42.5008 C   0  0  0  0  0  0  0  0  0  0  0  0
  -37.0291    4.3869  -43.7977 C   0  0  0  0  0  0  0  0  0  0  0  0
  -35.9480    3.4664  -44.1723 N   0  0  0  0  0  0  0  0  0  0  0  0
  -34.6958    4.1916  -44.4226 C   0  0  0  0  0  0  0  0  0  0  0  0
  -34.2559    4.9088  -43.1442 C   0  0  0  0  0  0  0  0  0  0  0  0
  -36.3899    2.5211  -45.5270 X   0  0  0  0  0  0  0  0  0  0  0  0
  1  2  1  0  0  0  0
  2  3  1  0  0  0  0
  3  4  1  0  0  0  0
  4  5  1  0  0  0  0
  5  6  1  0  0  0  0
  6  7  1  0  0  0  0
  6 11  1  0  0  0  0
  7  8  1  0  0  0  0
  8  9  1  0  0  0  0
  9 10  1  0  0  0  0
  9 12  1  0  0  0  0
 10 11  1  0  0  0  0
M  END
> <Index>
14584

> <PropertyFieldDistance>
nan

$$$$
12089950
BBcorina  12272117083D 1   1.00000     0.00000 
CORINA 4.3.0 0026  30.10.2019
 13 13  0  0  0  0  0  0  0  0999 V2000
  -37.7043    6.3246  -42.3919 C   0  0  0  0  0  0  0  0  0  0  0  0
  -36.6070    5.2766  -42.5892 C   0  0  0  0  0  0  0  0  0  0  0  0
  -37.0385    4.2820  -43.6702 C   0  0  0  0  0  0  0  0  0  0  0  0
  -35.9483    3.3238  -43.9093 N   0  0  0  0  0  0  0  0  0  0  0  0
  -36.3425    2.3152  -44.9018 C   0  0  0  0  0  0  0  0  0  0  0  0
  -34.7228    4.0213  -44.3252 C   0  0  0  0  0  0  0  0  0  0  0  0
  -34.3155    5.0187  -43.2373 C   0  0  0  0  0  0  0  0  0  0  0  0
  -35.3978    5.9223  -42.9968 O   0  0  0  0  0  0  0  0  0  0  0  0
  -33.1052    5.7928  -43.6920 C   0  0  0  0  0  0  0  0  0  0  0  0
  -33.1873    6.9871  -43.8871 O   0  0  0  0  0  0  0  0  0  0  0  0
  -31.9315    5.1582  -43.8820 N   0  0  0  0  0  0  0  0  0  0  0  0
  -30.8345    5.8599  -44.2940 N   0  0  0  0  0  0  0  0  0  0  0  0
  -29.5222    5.6312  -43.2216 X   0  0  0  0  0  0  0  0  0  0  0  0
  1  2  1  0  0  0  0
  2  3  1  0  0  0  0
  2  8  1  0  0  0  0
  3  4  1  0  0  0  0
  4  5  1  0  0  0  0
  4  6  1  0  0  0  0
  6  7  1  0  0  0  0
  7  8  1  0  0  0  0
  7  9  1  0  0  0  0
  9 10  2  0  0  0  0
  9 11  1  0  0  0  0
 11 12  1  0  0  0  0
 12 13  1  0  0  0  0
M  END
> <Index>
14600

> <PropertyFieldDistance>
nan

$$$$
11686358
BBcorina  12272117083D 1   1.00000     0.00000 
CORINA 4.3.0 0026  30.10.2019
 13 14  0  0  0  0  0  0  0  0999 V2000
  -35.9480    3.4664  -44.1723 N   0  0  0  0  0  0  0  0  0  0  0  0
  -37.0291    4.3869  -43.7977 C   0  0  0  0  0  0  0  0  0  0  0  0
  -36.6585    5.1099  -42.5008 C   0  0  0  0  0  0  0  0  0  0  0  0
  -35.3535    5.8833  -42.7079 C   0  0  0  0  0  0  0  0  0  0  0  0
  -34.9453    6.5600  -41.3980 C   0  0  0  0  0  0  0  0  0  0  0  0
  -35.9381    7.5774  -41.0437 N   0  0  0  0  0  0  0  0  0  0  0  0
  -37.0503    7.4030  -40.2897 C   0  0  0  0  0  0  0  0  0  0  0  0
  -37.6560    8.5570  -40.2187 N   0  0  0  0  0  0  0  0  0  0  0  0
  -36.9909    9.4365  -40.8804 N   0  0  0  0  0  0  0  0  0  0  0  0
  -35.9276    8.8849  -41.3987 C   0  0  0  0  0  0  0  0  0  0  0  0
  -34.2559    4.9088  -43.1442 C   0  0  0  0  0  0  0  0  0  0  0  0
  -34.6958    4.1916  -44.4226 C   0  0  0  0  0  0  0  0  0  0  0  0
  -36.3899    2.5211  -45.5270 X   0  0  0  0  0  0  0  0  0  0  0  0
  1  2  1  0  0  0  0
  1 12  1  0  0  0  0
  1 13  1  0  0  0  0
  2  3  1  0  0  0  0
  3  4  1  0  0  0  0
  4  5  1  0  0  0  0
  4 11  1  0  0  0  0
  5  6  1  0  0  0  0
  6  7  1  0  0  0  0
  6 10  1  0  0  0  0
  7  8  2  0  0  0  0
  8  9  1  0  0  0  0
  9 10  2  0  0  0  0
 11 12  1  0  0  0  0
M  END
> <Index>
14609

> <PropertyFieldDistance>
nan

$$$$
10431726
BBcorina  12272117083D 1   1.00000     0.00000 
CORINA 4.3.0 0026  30.10.2019
 10 11  0  0  0  0  0  0  0  0999 V2000
  -36.0194    3.9412  -44.5845 N   0  0  0  0  0  0  0  0  0  0  0  0
  -36.9723    4.0085  -43.4693 C   0  0  0  0  0  0  0  0  0  0  0  0
  -36.6796    5.2477  -42.6204 C   0  0  0  0  0  0  0  0  0  0  0  0
  -35.2463    5.1684  -42.0875 C   0  0  0  0  0  0  0  0  0  0  0  0
  -34.2763    5.0495  -43.2662 C   0  0  0  0  0  0  0  0  0  0  0  0
  -34.6397    3.8168  -44.0973 C   0  0  0  0  0  0  0  0  0  0  0  0
  -34.9273    6.4334  -41.2883 C   0  0  0  0  0  0  0  0  0  0  0  0
  -33.5321    6.5454  -40.6702 C   0  0  0  0  0  0  0  0  0  0  0  0
  -34.7465    6.2874  -39.7760 C   0  0  0  0  0  0  0  0  0  0  0  0
  -36.4111    2.6615  -45.6490 X   0  0  0  0  0  0  0  0  0  0  0  0
  1  2  1  0  0  0  0
  1  6  1  0  0  0  0
  1 10  1  0  0  0  0
  2  3  1  0  0  0  0
  3  4  1  0  0  0  0
  4  5  1  0  0  0  0
  4  7  1  0  0  0  0
  5  6  1  0  0  0  0
  7  8  1  0  0  0  0
  7  9  1  0  0  0  0
  8  9  1  0  0  0  0
M  END
> <Index>
14610

> <PropertyFieldDistance>
nan

$$$$
15087688
BBcorina  12272117083D 1   1.00000     0.00000 
CORINA 4.3.0 0026  30.10.2019
 11 11  0  0  0  0  0  0  0  0999 V2000
  -35.9828    7.6214  -41.0271 C   0  0  0  0  0  0  0  0  0  0  0  0
  -34.9460    6.5589  -41.3971 C   0  0  0  0  0  0  0  0  0  0  0  0
  -34.8770    5.6005  -40.3802 F   0  0  0  0  0  0  0  0  0  0  0  0
  -33.6941    7.1635  -41.5537 F   0  0  0  0  0  0  0  0  0  0  0  0
  -35.3535    5.8833  -42.7079 C   0  0  0  0  0  0  0  0  0  0  0  0
  -36.6585    5.1099  -42.5008 C   0  0  0  0  0  0  0  0  0  0  0  0
  -37.0291    4.3869  -43.7977 C   0  0  0  0  0  0  0  0  0  0  0  0
  -35.9480    3.4664  -44.1723 N   0  0  0  0  0  0  0  0  0  0  0  0
  -34.6958    4.1916  -44.4226 C   0  0  0  0  0  0  0  0  0  0  0  0
  -34.2559    4.9088  -43.1442 C   0  0  0  0  0  0  0  0  0  0  0  0
  -36.3899    2.5211  -45.5270 X   0  0  0  0  0  0  0  0  0  0  0  0
  1  2  1  0  0  0  0
  2  3  1  0  0  0  0
  2  4  1  0  0  0  0
  2  5  1  0  0  0  0
  5  6  1  0  0  0  0
  5 10  1  0  0  0  0
  6  7  1  0  0  0  0
  7  8  1  0  0  0  0
  8  9  1  0  0  0  0
  8 11  1  0  0  0  0
  9 10  1  0  0  0  0
M  END
> <Index>
14611

> <PropertyFieldDistance>
nan

$$$$
15563870
BBcorina  12272117083D 1   1.00000     0.00000 
CORINA 4.3.0 0026  30.10.2019
 15 16  0  0  0  0  0  0  0  0999 V2000
  -33.6216    6.9969  -41.2894 C   0  0  0  0  0  0  0  0  0  0  0  0
  -34.9719    6.8756  -41.8548 N   0  0  0  0  0  0  0  0  0  0  0  0
  -35.2421    5.4960  -42.2813 C   0  0  0  0  0  0  0  0  0  0  0  0
  -36.6958    5.3801  -42.7481 C   0  0  0  0  0  0  0  0  0  0  0  0
  -36.9540    3.9569  -43.2478 C   0  0  0  0  0  0  0  0  0  0  0  0
  -36.0395    3.6523  -44.3558 N   0  0  0  0  0  0  0  0  0  0  0  0
  -34.6386    3.7110  -43.9194 C   0  0  0  0  0  0  0  0  0  0  0  0
  -34.3113    5.1269  -43.4397 C   0  0  0  0  0  0  0  0  0  0  0  0
  -36.3357    2.4105  -44.9223 C   0  0  0  0  0  0  0  0  0  0  0  0
  -35.5836    1.9348  -45.9890 C   0  0  0  0  0  0  0  0  0  0  0  0
  -35.8794    0.7067  -46.5471 C   0  0  0  0  0  0  0  0  0  0  0  0
  -36.9266   -0.0468  -46.0490 C   0  0  0  0  0  0  0  0  0  0  0  0
  -37.6737    0.4213  -44.9836 C   0  0  0  0  0  0  0  0  0  0  0  0
  -37.3832    1.6486  -44.4207 C   0  0  0  0  0  0  0  0  0  0  0  0
  -36.1530    7.4155  -40.7423 X   0  0  0  0  0  0  0  0  0  0  0  0
  1  2  1  0  0  0  0
  2  3  1  0  0  0  0
  2 15  1  0  0  0  0
  3  4  1  0  0  0  0
  3  8  1  0  0  0  0
  4  5  1  0  0  0  0
  5  6  1  0  0  0  0
  6  7  1  0  0  0  0
  6  9  1  0  0  0  0
  7  8  1  0  0  0  0
  9 10  2  0  0  0  0
  9 14  1  0  0  0  0
 10 11  1  0  0  0  0
 11 12  2  0  0  0  0
 12 13  1  0  0  0  0
 13 14  2  0  0  0  0
M  END
> <Index>
14616

> <PropertyFieldDistance>
nan

$$$$
12851436
BBcorina  12272117083D 1   1.00000     0.00000 
CORINA 4.3.0 0026  30.10.2019
 14 15  0  0  0  0  0  0  0  0999 V2000
  -36.4006    2.3509  -46.0050 C   0  0  0  0  0  0  0  0  0  0  0  0
  -36.1136    1.9829  -44.5479 C   0  0  0  0  0  0  0  0  0  0  0  0
  -34.8893    1.0655  -44.4836 C   0  0  0  0  0  0  0  0  0  0  0  0
  -35.1893   -0.2312  -45.2389 C   0  0  0  0  0  0  0  0  0  0  0  0
  -36.3521   -0.8937  -44.6342 N   0  0  0  0  0  0  0  0  0  0  0  0
  -37.5510   -0.0508  -44.7267 C   0  0  0  0  0  0  0  0  0  0  0  0
  -37.3215    1.2513  -43.9561 C   0  0  0  0  0  0  0  0  0  0  0  0
  -35.8527    3.2047  -43.7753 N   0  0  0  0  0  0  0  0  0  0  0  0
  -37.0086    4.1097  -43.8153 C   0  0  0  0  0  0  0  0  0  0  0  0
  -36.7591    5.2994  -42.8857 C   0  0  0  0  0  0  0  0  0  0  0  0
  -35.4946    6.0363  -43.3359 C   0  0  0  0  0  0  0  0  0  0  0  0
  -34.3153    5.0595  -43.3315 C   0  0  0  0  0  0  0  0  0  0  0  0
  -34.6357    3.8767  -44.2482 C   0  0  0  0  0  0  0  0  0  0  0  0
  -36.6232   -2.4251  -45.3451 X   0  0  0  0  0  0  0  0  0  0  0  0
  1  2  1  0  0  0  0
  2  3  1  0  0  0  0
  2  7  1  0  0  0  0
  2  8  1  0  0  0  0
  3  4  1  0  0  0  0
  4  5  1  0  0  0  0
  5  6  1  0  0  0  0
  5 14  1  0  0  0  0
  6  7  1  0  0  0  0
  8  9  1  0  0  0  0
  8 13  1  0  0  0  0
  9 10  1  0  0  0  0
 10 11  1  0  0  0  0
 11 12  1  0  0  0  0
 12 13  1  0  0  0  0
M  END
> <Index>
14617

> <PropertyFieldDistance>
nan

$$$$
10908512
BBcorina  12272117083D 1   1.00000     0.00000 
CORINA 4.3.0 0026  30.10.2019
 12 12  0  0  0  0  0  0  0  0999 V2000
  -36.5051    0.3677  -45.9226 N   0  0  0  0  0  0  0  0  0  0  0  0
  -36.2471    1.3778  -45.0683 C   0  0  0  0  0  0  0  0  0  0  0  0
  -36.0055    1.1401  -43.9038 O   0  0  0  0  0  0  0  0  0  0  0  0
  -36.2587    2.8022  -45.5601 C   0  0  0  0  0  0  0  0  0  0  0  0
  -35.9509    3.7051  -44.4483 N   0  0  0  0  0  0  0  0  0  0  0  0
  -37.0540    4.2208  -43.6426 C   0  0  0  0  0  0  0  0  0  0  0  0
  -36.5258    4.7507  -42.3083 C   0  0  0  0  0  0  0  0  0  0  0  0
  -35.4005    5.6618  -42.5735 N   0  0  0  0  0  0  0  0  0  0  0  0
  -34.2466    4.9074  -43.0810 C   0  0  0  0  0  0  0  0  0  0  0  0
  -34.6723    4.0208  -44.2168 C   0  0  0  0  0  0  0  0  0  0  0  0
  -33.8204    3.5721  -44.9544 O   0  0  0  0  0  0  0  0  0  0  0  0
  -34.9850    6.5470  -41.1707 X   0  0  0  0  0  0  0  0  0  0  0  0
  1  2  1  0  0  0  0
  2  3  2  0  0  0  0
  2  4  1  0  0  0  0
  4  5  1  0  0  0  0
  5  6  1  0  0  0  0
  5 10  1  0  0  0  0
  6  7  1  0  0  0  0
  7  8  1  0  0  0  0
  8  9  1  0  0  0  0
  8 12  1  0  0  0  0
  9 10  1  0  0  0  0
 10 11  2  0  0  0  0
M  END
> <Index>
14618

> <PropertyFieldDistance>
nan

$$$$
12632932
BBcorina  12272117083D 1   1.00000     0.00000 
CORINA 4.3.0 0026  30.10.2019
 10 10  0  0  0  0  0  0  0  0999 V2000
  -32.8471    4.9088  -42.7406 C   0  0  0  0  0  0  0  0  0  0  0  0
  -34.2770    5.0496  -43.2665 C   0  0  0  0  0  0  0  0  0  0  0  0
  -34.3801    6.3017  -44.1396 C   0  0  0  0  0  0  0  0  0  0  0  0
  -35.2462    5.1676  -42.0870 C   0  0  0  0  0  0  0  0  0  0  0  0
  -36.6793    5.2476  -42.6202 C   0  0  0  0  0  0  0  0  0  0  0  0
  -37.5946    5.3021  -41.5241 O   0  0  0  0  0  0  0  0  0  0  0  0
  -36.9723    4.0087  -43.4694 C   0  0  0  0  0  0  0  0  0  0  0  0
  -36.0191    3.9414  -44.5845 N   0  0  0  0  0  0  0  0  0  0  0  0
  -34.6396    3.8164  -44.0970 C   0  0  0  0  0  0  0  0  0  0  0  0
  -36.4110    2.6621  -45.6494 X   0  0  0  0  0  0  0  0  0  0  0  0
  1  2  1  0  0  0  0
  2  3  1  0  0  0  0
  2  4  1  0  0  0  0
  2  9  1  0  0  0  0
  4  5  1  0  0  0  0
  5  6  1  0  0  0  0
  5  7  1  0  0  0  0
  7  8  1  0  0  0  0
  8  9  1  0  0  0  0
  8 10  1  0  0  0  0
M  END
> <Index>
14627

> <PropertyFieldDistance>
nan

$$$$
8644456
BBcorina  12272117083D 1   1.00000     0.00000 
CORINA 4.3.0 0026  30.10.2019
 11 12  0  0  0  0  0  0  0  0999 V2000
  -37.3707    3.8176  -42.4917 C   0  0  0  0  0  0  0  0  0  0  0  0
  -36.8010    4.5451  -43.7112 C   0  0  0  0  0  0  0  0  0  0  0  0
  -35.9899    3.6148  -44.5290 N   0  0  0  0  0  0  0  0  0  0  0  0
  -34.6194    3.7717  -43.9918 C   0  0  0  0  0  0  0  0  0  0  0  0
  -34.5558    5.1772  -43.4385 C   0  0  0  0  0  0  0  0  0  0  0  0
  -33.4881    5.9888  -43.1079 C   0  0  0  0  0  0  0  0  0  0  0  0
  -33.7126    7.2593  -42.6108 C   0  0  0  0  0  0  0  0  0  0  0  0
  -35.0058    7.7179  -42.4447 C   0  0  0  0  0  0  0  0  0  0  0  0
  -36.0750    6.9057  -42.7743 C   0  0  0  0  0  0  0  0  0  0  0  0
  -35.8516    5.6365  -43.2718 C   0  0  0  0  0  0  0  0  0  0  0  0
  -36.0520    4.0404  -46.1841 X   0  0  0  0  0  0  0  0  0  0  0  0
  1  2  1  0  0  0  0
  2  3  1  0  0  0  0
  2 10  1  0  0  0  0
  3  4  1  0  0  0  0
  3 11  1  0  0  0  0
  4  5  1  0  0  0  0
  5  6  2  0  0  0  0
  5 10  1  0  0  0  0
  6  7  1  0  0  0  0
  7  8  2  0  0  0  0
  8  9  1  0  0  0  0
  9 10  2  0  0  0  0
M  END
> <Index>
14630

> <PropertyFieldDistance>
nan

$$$$
12219036
BBcorina  12272117083D 1   1.00000     0.00000 
CORINA 4.3.0 0026  30.10.2019
 10 11  0  0  0  0  0  0  0  0999 V2000
  -36.0141    4.0736  -44.4343 N   0  0  0  0  0  0  0  0  0  0  0  0
  -36.8560    3.8922  -43.2629 C   0  0  0  0  0  0  0  0  0  0  0  0
  -37.0232    5.3051  -42.7649 C   0  0  0  0  0  0  0  0  0  0  0  0
  -36.1185    5.5125  -41.5035 C   0  0  0  0  0  0  0  0  0  0  0  0
  -35.3492    6.7766  -42.0818 C   0  0  0  0  0  0  0  0  0  0  0  0
  -34.7415    6.2985  -43.4211 C   0  0  0  0  0  0  0  0  0  0  0  0
  -34.0892    4.9261  -43.2747 C   0  0  0  0  0  0  0  0  0  0  0  0
  -34.6048    3.8666  -44.3009 C   0  0  0  0  0  0  0  0  0  0  0  0
  -34.6983    4.3334  -41.6529 S   0  0  0  0  0  0  0  0  0  0  0  0
  -36.6357    3.2134  -45.7750 X   0  0  0  0  0  0  0  0  0  0  0  0
  1  2  1  0  0  0  0
  1  8  1  0  0  0  0
  1 10  1  0  0  0  0
  2  3  1  0  0  0  0
  3  4  1  0  0  0  0
  4  5  1  0  0  0  0
  4  9  1  0  0  0  0
  5  6  1  0  0  0  0
  6  7  1  0  0  0  0
  7  8  1  0  0  0  0
  7  9  1  0  0  0  0
M  END
> <Index>
14633

> <PropertyFieldDistance>
nan

$$$$
7964678
BBcorina  12272117083D 1   1.00000     0.00000 
CORINA 4.3.0 0026  30.10.2019
 12 12  0  0  0  0  0  0  0  0999 V2000
  -35.1487    2.2928  -46.8570 C   0  0  0  0  0  0  0  0  0  0  0  0
  -35.5689    1.5955  -45.5616 C   0  0  0  0  0  0  0  0  0  0  0  0
  -36.1616    0.3326  -45.8710 O   0  0  0  0  0  0  0  0  0  0  0  0
  -36.5686    2.4540  -44.8304 C   0  0  0  0  0  0  0  0  0  0  0  0
  -37.7063    2.0628  -44.6769 O   0  0  0  0  0  0  0  0  0  0  0  0
  -36.1985    3.6563  -44.3471 N   0  0  0  0  0  0  0  0  0  0  0  0
  -37.1582    4.5100  -43.6306 C   0  0  0  0  0  0  0  0  0  0  0  0
  -36.5301    4.9379  -42.3000 C   0  0  0  0  0  0  0  0  0  0  0  0
  -35.2213    5.5540  -42.5557 N   0  0  0  0  0  0  0  0  0  0  0  0
  -34.2878    4.5919  -43.1566 C   0  0  0  0  0  0  0  0  0  0  0  0
  -34.8224    4.1471  -44.5169 C   0  0  0  0  0  0  0  0  0  0  0  0
  -34.5707    6.2272  -41.1246 X   0  0  0  0  0  0  0  0  0  0  0  0
  1  2  1  0  0  0  0
  2  3  1  0  0  0  0
  2  4  1  0  0  0  0
  4  5  2  0  0  0  0
  4  6  1  0  0  0  0
  6  7  1  0  0  0  0
  6 11  1  0  0  0  0
  7  8  1  0  0  0  0
  8  9  1  0  0  0  0
  9 10  1  0  0  0  0
  9 12  1  0  0  0  0
 10 11  1  0  0  0  0
M  END
> <Index>
14634

> <PropertyFieldDistance>
nan

$$$$
12206266
BBcorina  12272117083D 1   1.00000     0.00000 
CORINA 4.3.0 0026  30.10.2019
 10 10  0  0  0  0  0  0  0  0999 V2000
  -34.9734    6.5155  -41.4846 O   0  0  0  0  0  0  0  0  0  0  0  0
  -35.3535    5.8831  -42.7083 C   0  0  0  0  0  0  0  0  0  0  0  0
  -36.6588    5.1098  -42.5008 C   0  0  0  0  0  0  0  0  0  0  0  0
  -37.0292    4.3867  -43.7977 C   0  0  0  0  0  0  0  0  0  0  0  0
  -35.9482    3.4662  -44.1724 N   0  0  0  0  0  0  0  0  0  0  0  0
  -34.6962    4.1913  -44.4229 C   0  0  0  0  0  0  0  0  0  0  0  0
  -34.2549    4.9095  -43.1439 C   0  0  0  0  0  0  0  0  0  0  0  0
  -35.5472    6.9046  -43.7504 C   0  0  0  0  0  0  0  0  0  0  0  0
  -35.7016    7.7191  -44.5815 C   0  0  0  0  0  0  0  0  0  0  0  0
  -36.3904    2.5206  -45.5269 X   0  0  0  0  0  0  0  0  0  0  0  0
  1  2  1  0  0  0  0
  2  3  1  0  0  0  0
  2  7  1  0  0  0  0
  2  8  1  0  0  0  0
  3  4  1  0  0  0  0
  4  5  1  0  0  0  0
  5  6  1  0  0  0  0
  5 10  1  0  0  0  0
  6  7  1  0  0  0  0
  8  9  3  0  0  0  0
M  END
> <Index>
14643

> <PropertyFieldDistance>
nan

$$$$
13030960
BBcorina  12272117083D 1   1.00000     0.00000 
CORINA 4.3.0 0026  30.10.2019
  9 10  0  0  0  0  0  0  0  0999 V2000
  -36.0173    3.5926  -44.4913 N   0  0  0  0  0  0  0  0  0  0  0  0
  -36.3933    2.1751  -44.5753 C   0  0  0  0  0  0  0  0  0  0  0  0
  -36.1059    1.6538  -45.9846 C   0  0  0  0  0  0  0  0  0  0  0  0
  -34.5824    1.5193  -46.2247 C   0  0  0  0  0  0  0  0  0  0  0  0
  -34.4672    0.4681  -47.3479 C   0  0  0  0  0  0  0  0  0  0  0  0
  -34.4058   -1.0087  -46.9523 C   0  0  0  0  0  0  0  0  0  0  0  0
  -35.7542   -0.3727  -47.2964 C   0  0  0  0  0  0  0  0  0  0  0  0
  -36.6069    0.1968  -46.1438 C   0  0  0  0  0  0  0  0  0  0  0  0
  -36.3230    4.2164  -42.9287 X   0  0  0  0  0  0  0  0  0  0  0  0
  1  2  1  0  0  0  0
  1  9  1  0  0  0  0
  2  3  1  0  0  0  0
  3  4  1  0  0  0  0
  3  8  1  0  0  0  0
  4  5  1  0  0  0  0
  5  6  1  0  0  0  0
  5  7  1  0  0  0  0
  6  7  1  0  0  0  0
  7  8  1  0  0  0  0
M  END
> <Index>
14659

> <PropertyFieldDistance>
nan

$$$$
10436376
BBcorina  12272117083D 1   1.00000     0.00000 
CORINA 4.3.0 0026  30.10.2019
 11 12  0  0  0  0  0  0  0  0999 V2000
  -36.3204    2.2780  -44.8895 C   0  0  0  0  0  0  0  0  0  0  0  0
  -36.0750    3.6554  -44.4419 N   0  0  0  0  0  0  0  0  0  0  0  0
  -37.0880    4.0784  -43.4399 C   0  0  0  0  0  0  0  0  0  0  0  0
  -36.3992    5.2582  -42.7043 C   0  0  0  0  0  0  0  0  0  0  0  0
  -34.9287    4.8096  -42.6550 C   0  0  0  0  0  0  0  0  0  0  0  0
  -33.9845    6.0025  -42.8692 C   0  0  0  0  0  0  0  0  0  0  0  0
  -33.5583    6.3633  -41.4215 C   0  0  0  0  0  0  0  0  0  0  0  0
  -33.4549    5.0395  -40.7540 N   0  0  0  0  0  0  0  0  0  0  0  0
  -34.5782    4.2304  -41.2827 C   0  0  0  0  0  0  0  0  0  0  0  0
  -34.7626    3.7672  -43.7629 C   0  0  0  0  0  0  0  0  0  0  0  0
  -33.5616    5.1999  -39.0549 X   0  0  0  0  0  0  0  0  0  0  0  0
  1  2  1  0  0  0  0
  2  3  1  0  0  0  0
  2 10  1  0  0  0  0
  3  4  1  0  0  0  0
  4  5  1  0  0  0  0
  5  6  1  0  0  0  0
  5  9  1  0  0  0  0
  5 10  1  0  0  0  0
  6  7  1  0  0  0  0
  7  8  1  0  0  0  0
  8  9  1  0  0  0  0
  8 11  1  0  0  0  0
M  END
> <Index>
14670

> <PropertyFieldDistance>
nan

$$$$
12520038
BBcorina  12272117083D 1   1.00000     0.00000 
CORINA 4.3.0 0026  30.10.2019
 13 13  0  0  0  0  0  0  0  0999 V2000
  -35.7509    1.9097  -46.0357 C   0  0  0  0  0  0  0  0  0  0  0  0
  -36.5498    2.2606  -44.7790 C   0  0  0  0  0  0  0  0  0  0  0  0
  -36.2731    1.2204  -43.6917 C   0  0  0  0  0  0  0  0  0  0  0  0
  -36.1484    3.5896  -44.2987 N   0  0  0  0  0  0  0  0  0  0  0  0
  -36.9776    4.0111  -43.1624 C   0  0  0  0  0  0  0  0  0  0  0  0
  -36.6306    5.4526  -42.7830 C   0  0  0  0  0  0  0  0  0  0  0  0
  -35.1467    5.5350  -42.4144 C   0  0  0  0  0  0  0  0  0  0  0  0
  -34.7795    6.9851  -42.0928 C   0  0  0  0  0  0  0  0  0  0  0  0
  -33.3309    7.0482  -41.6048 C   0  0  0  0  0  0  0  0  0  0  0  0
  -32.9784    8.4404  -41.2960 N   0  0  0  0  0  0  0  0  0  0  0  0
  -34.3070    5.0449  -43.5972 C   0  0  0  0  0  0  0  0  0  0  0  0
  -34.7214    3.6153  -43.9530 C   0  0  0  0  0  0  0  0  0  0  0  0
  -31.3634    8.5562  -40.7457 X   0  0  0  0  0  0  0  0  0  0  0  0
  1  2  1  0  0  0  0
  2  3  1  0  0  0  0
  2  4  1  0  0  0  0
  4  5  1  0  0  0  0
  4 12  1  0  0  0  0
  5  6  1  0  0  0  0
  6  7  1  0  0  0  0
  7  8  1  0  0  0  0
  7 11  1  0  0  0  0
  8  9  1  0  0  0  0
  9 10  1  0  0  0  0
 10 13  1  0  0  0  0
 11 12  1  0  0  0  0
M  END
> <Index>
14676

> <PropertyFieldDistance>
nan

$$$$
11686032
BBcorina  12272117083D 1   1.00000     0.00000 
CORINA 4.3.0 0026  30.10.2019
 11 11  0  0  0  0  0  0  0  0999 V2000
  -36.2719    1.3428  -45.3645 C   0  0  0  0  0  0  0  0  0  0  0  0
  -36.1769    2.8475  -45.6248 C   0  0  0  0  0  0  0  0  0  0  0  0
  -35.9900    3.5519  -44.3540 N   0  0  0  0  0  0  0  0  0  0  0  0
  -37.0859    4.0464  -43.5123 C   0  0  0  0  0  0  0  0  0  0  0  0
  -36.4384    5.0666  -42.5499 C   0  0  0  0  0  0  0  0  0  0  0  0
  -36.5190    6.4846  -43.1189 C   0  0  0  0  0  0  0  0  0  0  0  0
  -35.9355    7.4313  -42.1590 N   0  0  0  0  0  0  0  0  0  0  0  0
  -34.9743    4.5713  -42.5037 C   0  0  0  0  0  0  0  0  0  0  0  0
  -34.7928    3.8281  -43.8088 C   0  0  0  0  0  0  0  0  0  0  0  0
  -33.7227    3.5251  -44.2925 O   0  0  0  0  0  0  0  0  0  0  0  0
  -36.0054    9.0318  -42.7570 X   0  0  0  0  0  0  0  0  0  0  0  0
  1  2  1  0  0  0  0
  2  3  1  0  0  0  0
  3  4  1  0  0  0  0
  3  9  1  0  0  0  0
  4  5  1  0  0  0  0
  5  6  1  0  0  0  0
  5  8  1  0  0  0  0
  6  7  1  0  0  0  0
  7 11  1  0  0  0  0
  8  9  1  0  0  0  0
  9 10  2  0  0  0  0
M  END
> <Index>
14687

> <PropertyFieldDistance>
nan

$$$$
9744270
BBcorina  12272117083D 1   1.00000     0.00000 
CORINA 4.3.0 0026  30.10.2019
 11 11  0  0  0  0  0  0  0  0999 V2000
  -35.7893   -1.8283  -47.3158 C   0  0  0  0  0  0  0  0  0  0  0  0
  -35.3989   -0.4281  -47.1030 N   0  0  0  0  0  0  0  0  0  0  0  0
  -36.1988    0.1848  -46.0341 C   0  0  0  0  0  0  0  0  0  0  0  0
  -35.7643    1.6391  -45.8420 C   0  0  0  0  0  0  0  0  0  0  0  0
  -36.5974    2.2775  -44.7288 C   0  0  0  0  0  0  0  0  0  0  0  0
  -36.1803    3.6739  -44.5443 N   0  0  0  0  0  0  0  0  0  0  0  0
  -37.1112    4.3902  -43.6533 C   0  0  0  0  0  0  0  0  0  0  0  0
  -36.2804    4.9534  -42.4812 C   0  0  0  0  0  0  0  0  0  0  0  0
  -34.8447    5.0109  -43.0666 C   0  0  0  0  0  0  0  0  0  0  0  0
  -34.8222    3.7491  -43.9647 C   0  0  0  0  0  0  0  0  0  0  0  0
  -33.7271   -0.3027  -46.7660 X   0  0  0  0  0  0  0  0  0  0  0  0
  1  2  1  0  0  0  0
  2  3  1  0  0  0  0
  2 11  1  0  0  0  0
  3  4  1  0  0  0  0
  4  5  1  0  0  0  0
  5  6  1  0  0  0  0
  6  7  1  0  0  0  0
  6 10  1  0  0  0  0
  7  8  1  0  0  0  0
  8  9  1  0  0  0  0
  9 10  1  0  0  0  0
M  END
> <Index>
14689

> <PropertyFieldDistance>
nan

$$$$
8600856
BBcorina  12272117083D 1   1.00000     0.00000 
CORINA 4.3.0 0026  30.10.2019
 12 13  0  0  0  0  0  0  0  0999 V2000
  -36.2307    7.4074  -41.5661 N   0  0  0  0  0  0  0  0  0  0  0  0
  -36.9386    6.6084  -42.5753 C   0  0  0  0  0  0  0  0  0  0  0  0
  -36.3858    5.1818  -42.5759 C   0  0  0  0  0  0  0  0  0  0  0  0
  -37.0874    4.3175  -43.6470 C   0  0  0  0  0  0  0  0  0  0  0  0
  -36.0452    3.4350  -44.1845 N   0  0  0  0  0  0  0  0  0  0  0  0
  -36.3096    2.2203  -44.9596 C   0  0  0  0  0  0  0  0  0  0  0  0
  -35.7434    2.1510  -46.3793 C   0  0  0  0  0  0  0  0  0  0  0  0
  -35.1223    1.3048  -45.2650 C   0  0  0  0  0  0  0  0  0  0  0  0
  -34.8171    3.8826  -43.8714 C   0  0  0  0  0  0  0  0  0  0  0  0
  -33.7787    3.3458  -44.1947 O   0  0  0  0  0  0  0  0  0  0  0  0
  -34.9184    5.1571  -43.0626 C   0  0  0  0  0  0  0  0  0  0  0  0
  -36.8192    9.0126  -41.5322 X   0  0  0  0  0  0  0  0  0  0  0  0
  1  2  1  0  0  0  0
  1 12  1  0  0  0  0
  2  3  1  0  0  0  0
  3  4  1  0  0  0  0
  3 11  1  0  0  0  0
  4  5  1  0  0  0  0
  5  6  1  0  0  0  0
  5  9  1  0  0  0  0
  6  7  1  0  0  0  0
  6  8  1  0  0  0  0
  7  8  1  0  0  0  0
  9 10  2  0  0  0  0
  9 11  1  0  0  0  0
M  END
> <Index>
14692

> <PropertyFieldDistance>
nan

$$$$
12056454
BBcorina  12272117083D 1   1.00000     0.00000 
CORINA 4.3.0 0026  30.10.2019
 12 12  0  0  0  0  0  0  0  0999 V2000
  -36.2559    9.9838  -38.1554 C   0  0  0  0  0  0  0  0  0  0  0  0
  -36.5437    9.2894  -39.3707 O   0  0  0  0  0  0  0  0  0  0  0  0
  -35.5752    8.2970  -39.7163 C   0  0  0  0  0  0  0  0  0  0  0  0
  -35.9828    7.6214  -41.0271 C   0  0  0  0  0  0  0  0  0  0  0  0
  -34.9460    6.5589  -41.3971 C   0  0  0  0  0  0  0  0  0  0  0  0
  -35.3535    5.8833  -42.7079 C   0  0  0  0  0  0  0  0  0  0  0  0
  -36.6585    5.1099  -42.5008 C   0  0  0  0  0  0  0  0  0  0  0  0
  -37.0291    4.3869  -43.7977 C   0  0  0  0  0  0  0  0  0  0  0  0
  -35.9480    3.4664  -44.1723 N   0  0  0  0  0  0  0  0  0  0  0  0
  -34.6958    4.1916  -44.4226 C   0  0  0  0  0  0  0  0  0  0  0  0
  -34.2559    4.9088  -43.1442 C   0  0  0  0  0  0  0  0  0  0  0  0
  -36.3899    2.5211  -45.5270 X   0  0  0  0  0  0  0  0  0  0  0  0
  1  2  1  0  0  0  0
  2  3  1  0  0  0  0
  3  4  1  0  0  0  0
  4  5  1  0  0  0  0
  5  6  1  0  0  0  0
  6  7  1  0  0  0  0
  6 11  1  0  0  0  0
  7  8  1  0  0  0  0
  8  9  1  0  0  0  0
  9 10  1  0  0  0  0
  9 12  1  0  0  0  0
 10 11  1  0  0  0  0
M  END
> <Index>
14693

> <PropertyFieldDistance>
nan

$$$$
7692452
BBcorina  12272117083D 1   1.00000     0.00000 
CORINA 4.3.0 0026  30.10.2019
 10 10  0  0  0  0  0  0  0  0999 V2000
  -34.0163    3.8802  -42.0372 C   0  0  0  0  0  0  0  0  0  0  0  0
  -34.2558    4.9088  -43.1443 C   0  0  0  0  0  0  0  0  0  0  0  0
  -32.9630    5.6821  -43.4116 C   0  0  0  0  0  0  0  0  0  0  0  0
  -31.9392    4.7721  -43.8187 O   0  0  0  0  0  0  0  0  0  0  0  0
  -35.3535    5.8832  -42.7081 C   0  0  0  0  0  0  0  0  0  0  0  0
  -36.6587    5.1099  -42.5007 C   0  0  0  0  0  0  0  0  0  0  0  0
  -37.0290    4.3869  -43.7977 C   0  0  0  0  0  0  0  0  0  0  0  0
  -35.9479    3.4664  -44.1723 N   0  0  0  0  0  0  0  0  0  0  0  0
  -34.6958    4.1916  -44.4227 C   0  0  0  0  0  0  0  0  0  0  0  0
  -36.3898    2.5210  -45.5269 X   0  0  0  0  0  0  0  0  0  0  0  0
  1  2  1  0  0  0  0
  2  3  1  0  0  0  0
  2  5  1  0  0  0  0
  2  9  1  0  0  0  0
  3  4  1  0  0  0  0
  5  6  1  0  0  0  0
  6  7  1  0  0  0  0
  7  8  1  0  0  0  0
  8  9  1  0  0  0  0
  8 10  1  0  0  0  0
M  END
> <Index>
14697

> <PropertyFieldDistance>
nan

$$$$
10970968
BBcorina  12272117083D 1   1.00000     0.00000 
CORINA 4.3.0 0026  30.10.2019
 12 12  0  0  0  0  0  0  0  0999 V2000
  -36.8374    9.3205  -39.6253 C   0  0  0  0  0  0  0  0  0  0  0  0
  -35.8150    8.3305  -39.9134 O   0  0  0  0  0  0  0  0  0  0  0  0
  -35.9673    7.6054  -41.0327 C   0  0  0  0  0  0  0  0  0  0  0  0
  -36.9231    7.7917  -41.7479 O   0  0  0  0  0  0  0  0  0  0  0  0
  -34.9460    6.5589  -41.3971 C   0  0  0  0  0  0  0  0  0  0  0  0
  -35.3535    5.8833  -42.7079 C   0  0  0  0  0  0  0  0  0  0  0  0
  -36.6585    5.1099  -42.5008 C   0  0  0  0  0  0  0  0  0  0  0  0
  -37.0291    4.3869  -43.7977 C   0  0  0  0  0  0  0  0  0  0  0  0
  -35.9480    3.4664  -44.1723 N   0  0  0  0  0  0  0  0  0  0  0  0
  -34.6958    4.1916  -44.4226 C   0  0  0  0  0  0  0  0  0  0  0  0
  -34.2559    4.9088  -43.1442 C   0  0  0  0  0  0  0  0  0  0  0  0
  -36.3899    2.5211  -45.5270 X   0  0  0  0  0  0  0  0  0  0  0  0
  1  2  1  0  0  0  0
  2  3  1  0  0  0  0
  3  4  2  0  0  0  0
  3  5  1  0  0  0  0
  5  6  1  0  0  0  0
  6  7  1  0  0  0  0
  6 11  1  0  0  0  0
  7  8  1  0  0  0  0
  8  9  1  0  0  0  0
  9 10  1  0  0  0  0
  9 12  1  0  0  0  0
 10 11  1  0  0  0  0
M  END
> <Index>
14699

> <PropertyFieldDistance>
nan

$$$$
12851736
BBcorina  12272117083D 1   1.00000     0.00000 
CORINA 4.3.0 0026  30.10.2019
 10 10  0  0  0  0  0  0  0  0999 V2000
  -38.3299    7.7405  -40.4472 O   0  0  0  0  0  0  0  0  0  0  0  0
  -37.3273    6.7846  -40.7976 C   0  0  0  0  0  0  0  0  0  0  0  0
  -37.6836    6.1406  -42.1391 C   0  0  0  0  0  0  0  0  0  0  0  0
  -36.6101    5.1169  -42.5144 C   0  0  0  0  0  0  0  0  0  0  0  0
  -37.0250    4.3873  -43.7948 C   0  0  0  0  0  0  0  0  0  0  0  0
  -35.9554    3.4606  -44.1930 N   0  0  0  0  0  0  0  0  0  0  0  0
  -34.6941    4.1836  -44.4110 C   0  0  0  0  0  0  0  0  0  0  0  0
  -34.3026    4.9152  -43.1244 C   0  0  0  0  0  0  0  0  0  0  0  0
  -35.3668    5.7880  -42.7357 O   0  0  0  0  0  0  0  0  0  0  0  0
  -36.4010    2.5722  -45.5847 X   0  0  0  0  0  0  0  0  0  0  0  0
  1  2  1  0  0  0  0
  2  3  1  0  0  0  0
  3  4  1  0  0  0  0
  4  5  1  0  0  0  0
  4  9  1  0  0  0  0
  5  6  1  0  0  0  0
  6  7  1  0  0  0  0
  6 10  1  0  0  0  0
  7  8  1  0  0  0  0
  8  9  1  0  0  0  0
M  END
> <Index>
14701

> <PropertyFieldDistance>
nan

$$$$
6822602
BBcorina  12272117083D 1   1.00000     0.00000 
CORINA 4.3.0 0026  30.10.2019
 13 13  0  0  0  0  0  0  0  0999 V2000
  -35.8996    9.8541  -37.9690 C   0  0  0  0  0  0  0  0  0  0  0  0
  -36.3476    9.2579  -39.2149 O   0  0  0  0  0  0  0  0  0  0  0  0
  -35.5813    8.2869  -39.7359 C   0  0  0  0  0  0  0  0  0  0  0  0
  -34.5697    7.9463  -39.1698 O   0  0  0  0  0  0  0  0  0  0  0  0
  -35.9828    7.6214  -41.0271 C   0  0  0  0  0  0  0  0  0  0  0  0
  -34.9460    6.5589  -41.3971 C   0  0  0  0  0  0  0  0  0  0  0  0
  -35.3535    5.8833  -42.7079 C   0  0  0  0  0  0  0  0  0  0  0  0
  -36.6585    5.1099  -42.5008 C   0  0  0  0  0  0  0  0  0  0  0  0
  -37.0291    4.3869  -43.7977 C   0  0  0  0  0  0  0  0  0  0  0  0
  -35.9480    3.4664  -44.1723 N   0  0  0  0  0  0  0  0  0  0  0  0
  -34.6958    4.1916  -44.4226 C   0  0  0  0  0  0  0  0  0  0  0  0
  -34.2559    4.9088  -43.1442 C   0  0  0  0  0  0  0  0  0  0  0  0
  -36.3899    2.5211  -45.5270 X   0  0  0  0  0  0  0  0  0  0  0  0
  1  2  1  0  0  0  0
  2  3  1  0  0  0  0
  3  4  2  0  0  0  0
  3  5  1  0  0  0  0
  5  6  1  0  0  0  0
  6  7  1  0  0  0  0
  7  8  1  0  0  0  0
  7 12  1  0  0  0  0
  8  9  1  0  0  0  0
  9 10  1  0  0  0  0
 10 11  1  0  0  0  0
 10 13  1  0  0  0  0
 11 12  1  0  0  0  0
M  END
> <Index>
14710

> <PropertyFieldDistance>
nan

$$$$
14795904
BBcorina  12272117083D 1   1.00000     0.00000 
CORINA 4.3.0 0026  30.10.2019
  9  9  0  0  0  0  0  0  0  0999 V2000
  -32.6232    4.6459  -43.1553 O   0  0  0  0  0  0  0  0  0  0  0  0
  -33.9823    4.9716  -43.4536 C   0  0  0  0  0  0  0  0  0  0  0  0
  -34.7165    5.3229  -42.1421 C   0  0  0  0  0  0  0  0  0  0  0  0
  -35.8971    6.0147  -42.4526 O   0  0  0  0  0  0  0  0  0  0  0  0
  -37.1019    5.2333  -42.5887 C   0  0  0  0  0  0  0  0  0  0  0  0
  -36.8785    3.9216  -43.3609 C   0  0  0  0  0  0  0  0  0  0  0  0
  -36.0147    4.1036  -44.5030 N   0  0  0  0  0  0  0  0  0  0  0  0
  -34.6100    3.8335  -44.1315 C   0  0  0  0  0  0  0  0  0  0  0  0
  -36.5053    3.1117  -45.8067 X   0  0  0  0  0  0  0  0  0  0  0  0
  1  2  1  0  0  0  0
  2  3  1  0  0  0  0
  2  8  1  0  0  0  0
  3  4  1  0  0  0  0
  4  5  1  0  0  0  0
  5  6  1  0  0  0  0
  6  7  1  0  0  0  0
  7  8  1  0  0  0  0
  7  9  1  0  0  0  0
M  END
> <Index>
14727

> <PropertyFieldDistance>
nan

$$$$
9786624
BBcorina  12272117083D 1   1.00000     0.00000 
CORINA 4.3.0 0026  30.10.2019
 13 13  0  0  0  0  0  0  0  0999 V2000
  -35.1793    6.3490  -41.3024 C   0  0  0  0  0  0  0  0  0  0  0  0
  -35.2918    5.1137  -42.0893 N   0  0  0  0  0  0  0  0  0  0  0  0
  -36.6241    4.9964  -42.6979 C   0  0  0  0  0  0  0  0  0  0  0  0
  -36.7268    3.6623  -43.4411 C   0  0  0  0  0  0  0  0  0  0  0  0
  -35.6753    3.5928  -44.4652 N   0  0  0  0  0  0  0  0  0  0  0  0
  -35.7876    2.3574  -45.2521 C   0  0  0  0  0  0  0  0  0  0  0  0
  -37.2466    2.1438  -45.6605 C   0  0  0  0  0  0  0  0  0  0  0  0
  -37.3589    0.9085  -46.4474 N   0  0  0  0  0  0  0  0  0  0  0  0
  -34.3428    3.7102  -43.8566 C   0  0  0  0  0  0  0  0  0  0  0  0
  -34.2401    5.0442  -43.1135 C   0  0  0  0  0  0  0  0  0  0  0  0
  -32.8682    5.1515  -42.4445 C   0  0  0  0  0  0  0  0  0  0  0  0
  -34.4164    6.1959  -44.1051 C   0  0  0  0  0  0  0  0  0  0  0  0
  -38.9772    0.6314  -46.9254 X   0  0  0  0  0  0  0  0  0  0  0  0
  1  2  1  0  0  0  0
  2  3  1  0  0  0  0
  2 10  1  0  0  0  0
  3  4  1  0  0  0  0
  4  5  1  0  0  0  0
  5  6  1  0  0  0  0
  5  9  1  0  0  0  0
  6  7  1  0  0  0  0
  7  8  1  0  0  0  0
  8 13  1  0  0  0  0
  9 10  1  0  0  0  0
 10 11  1  0  0  0  0
 10 12  1  0  0  0  0
M  END
> <Index>
14728

> <PropertyFieldDistance>
nan

$$$$
9706472
BBcorina  12272117083D 1   1.00000     0.00000 
CORINA 4.3.0 0026  30.10.2019
 14 15  0  0  0  0  0  0  0  0999 V2000
  -38.6671    2.2731  -43.2471 N   0  0  0  0  0  0  0  0  0  0  0  0
  -38.1533    3.4935  -42.6111 C   0  0  0  0  0  0  0  0  0  0  0  0
  -37.1153    4.1469  -43.5257 C   0  0  0  0  0  0  0  0  0  0  0  0
  -36.3861    5.2931  -42.7812 C   0  0  0  0  0  0  0  0  0  0  0  0
  -35.0487    5.3738  -43.5634 C   0  0  0  0  0  0  0  0  0  0  0  0
  -34.7628    3.8989  -43.9162 C   0  0  0  0  0  0  0  0  0  0  0  0
  -36.0497    3.1807  -43.8675 N   0  0  0  0  0  0  0  0  0  0  0  0
  -36.3313    2.5176  -45.1478 C   0  0  0  0  0  0  0  0  0  0  0  0
  -35.2815    1.4341  -45.4026 C   0  0  0  0  0  0  0  0  0  0  0  0
  -35.5748    0.7434  -46.7360 C   0  0  0  0  0  0  0  0  0  0  0  0
  -35.5281    1.7744  -47.8655 C   0  0  0  0  0  0  0  0  0  0  0  0
  -36.5777    2.8580  -47.6106 C   0  0  0  0  0  0  0  0  0  0  0  0
  -36.2844    3.5486  -46.2773 C   0  0  0  0  0  0  0  0  0  0  0  0
  -39.8329    1.5097  -42.2559 X   0  0  0  0  0  0  0  0  0  0  0  0
  1  2  1  0  0  0  0
  1 14  1  0  0  0  0
  2  3  1  0  0  0  0
  3  4  1  0  0  0  0
  3  7  1  0  0  0  0
  4  5  1  0  0  0  0
  5  6  1  0  0  0  0
  6  7  1  0  0  0  0
  7  8  1  0  0  0  0
  8  9  1  0  0  0  0
  8 13  1  0  0  0  0
  9 10  1  0  0  0  0
 10 11  1  0  0  0  0
 11 12  1  0  0  0  0
 12 13  1  0  0  0  0
M  END
> <Index>
14729

> <PropertyFieldDistance>
nan

$$$$
17525508
BBcorina  12272117083D 1   1.00000     0.00000 
CORINA 4.3.0 0026  30.10.2019
 11 12  0  0  0  0  0  0  0  0999 V2000
  -36.0179    3.8214  -44.5324 N   0  0  0  0  0  0  0  0  0  0  0  0
  -36.9002    3.9620  -43.3713 C   0  0  0  0  0  0  0  0  0  0  0  0
  -36.6873    5.3503  -42.7551 C   0  0  0  0  0  0  0  0  0  0  0  0
  -35.2826    5.3894  -42.1466 C   0  0  0  0  0  0  0  0  0  0  0  0
  -34.2911    4.8343  -43.1372 C   0  0  0  0  0  0  0  0  0  0  0  0
  -32.9433    5.0635  -42.9331 C   0  0  0  0  0  0  0  0  0  0  0  0
  -32.0398    4.5875  -43.7679 N   0  0  0  0  0  0  0  0  0  0  0  0
  -32.3785    3.8769  -44.8273 C   0  0  0  0  0  0  0  0  0  0  0  0
  -33.7014    3.6070  -45.1018 C   0  0  0  0  0  0  0  0  0  0  0  0
  -34.6908    4.0955  -44.2416 C   0  0  0  0  0  0  0  0  0  0  0  0
  -36.5685    4.7760  -45.8399 X   0  0  0  0  0  0  0  0  0  0  0  0
  1  2  1  0  0  0  0
  1 10  1  0  0  0  0
  1 11  1  0  0  0  0
  2  3  1  0  0  0  0
  3  4  1  0  0  0  0
  4  5  1  0  0  0  0
  5  6  2  0  0  0  0
  5 10  1  0  0  0  0
  6  7  1  0  0  0  0
  7  8  2  0  0  0  0
  8  9  1  0  0  0  0
  9 10  2  0  0  0  0
M  END
> <Index>
14734

> <PropertyFieldDistance>
nan

$$$$
9048654
BBcorina  12272117083D 1   1.00000     0.00000 
CORINA 4.3.0 0026  30.10.2019
 11 11  0  0  0  0  0  0  0  0999 V2000
  -30.5160    4.6647  -43.0396 C   0  0  0  0  0  0  0  0  0  0  0  0
  -31.8459    4.7880  -43.6092 O   0  0  0  0  0  0  0  0  0  0  0  0
  -32.8686    4.9108  -42.7485 C   0  0  0  0  0  0  0  0  0  0  0  0
  -32.6594    4.9153  -41.5585 O   0  0  0  0  0  0  0  0  0  0  0  0
  -34.2769    5.0496  -43.2665 C   0  0  0  0  0  0  0  0  0  0  0  0
  -35.2461    5.1675  -42.0870 C   0  0  0  0  0  0  0  0  0  0  0  0
  -36.6793    5.2476  -42.6202 C   0  0  0  0  0  0  0  0  0  0  0  0
  -36.9723    4.0087  -43.4695 C   0  0  0  0  0  0  0  0  0  0  0  0
  -36.0191    3.9414  -44.5845 N   0  0  0  0  0  0  0  0  0  0  0  0
  -34.6396    3.8164  -44.0971 C   0  0  0  0  0  0  0  0  0  0  0  0
  -36.4111    2.6622  -45.6495 X   0  0  0  0  0  0  0  0  0  0  0  0
  1  2  1  0  0  0  0
  2  3  1  0  0  0  0
  3  4  2  0  0  0  0
  3  5  1  0  0  0  0
  5  6  1  0  0  0  0
  5 10  1  0  0  0  0
  6  7  1  0  0  0  0
  7  8  1  0  0  0  0
  8  9  1  0  0  0  0
  9 10  1  0  0  0  0
  9 11  1  0  0  0  0
M  END
> <Index>
14747

> <PropertyFieldDistance>
nan

$$$$
4970924
BBcorina  12272117083D 1   1.00000     0.00000 
CORINA 4.3.0 0026  30.10.2019
 15 16  0  0  0  0  0  0  0  0999 V2000
  -32.5304    6.5516  -42.6265 C   0  0  0  0  0  0  0  0  0  0  0  0
  -32.9158    5.1798  -42.9836 N   0  0  0  0  0  0  0  0  0  0  0  0
  -34.3113    5.1269  -43.4397 C   0  0  0  0  0  0  0  0  0  0  0  0
  -35.2420    5.4960  -42.2813 C   0  0  0  0  0  0  0  0  0  0  0  0
  -36.6957    5.3801  -42.7481 C   0  0  0  0  0  0  0  0  0  0  0  0
  -36.9540    3.9568  -43.2479 C   0  0  0  0  0  0  0  0  0  0  0  0
  -36.0395    3.6523  -44.3557 N   0  0  0  0  0  0  0  0  0  0  0  0
  -34.6386    3.7110  -43.9194 C   0  0  0  0  0  0  0  0  0  0  0  0
  -36.3357    2.4105  -44.9224 C   0  0  0  0  0  0  0  0  0  0  0  0
  -37.6138    2.1504  -45.4000 C   0  0  0  0  0  0  0  0  0  0  0  0
  -37.9032    0.9216  -45.9601 C   0  0  0  0  0  0  0  0  0  0  0  0
  -36.9222   -0.0493  -46.0455 C   0  0  0  0  0  0  0  0  0  0  0  0
  -35.6488    0.2063  -45.5708 C   0  0  0  0  0  0  0  0  0  0  0  0
  -35.3513    1.4347  -45.0144 C   0  0  0  0  0  0  0  0  0  0  0  0
  -32.6580    4.1104  -41.6744 X   0  0  0  0  0  0  0  0  0  0  0  0
  1  2  1  0  0  0  0
  2  3  1  0  0  0  0
  2 15  1  0  0  0  0
  3  4  1  0  0  0  0
  3  8  1  0  0  0  0
  4  5  1  0  0  0  0
  5  6  1  0  0  0  0
  6  7  1  0  0  0  0
  7  8  1  0  0  0  0
  7  9  1  0  0  0  0
  9 10  2  0  0  0  0
  9 14  1  0  0  0  0
 10 11  1  0  0  0  0
 11 12  2  0  0  0  0
 12 13  1  0  0  0  0
 13 14  2  0  0  0  0
M  END
> <Index>
14766

> <PropertyFieldDistance>
nan

$$$$
14316660
BBcorina  12272117083D 1   1.00000     0.00000 
CORINA 4.3.0 0026  30.10.2019
 13 14  0  0  0  0  0  0  0  0999 V2000
  -36.5365    0.6559  -44.2293 O   0  0  0  0  0  0  0  0  0  0  0  0
  -36.9409    1.5688  -45.2516 C   0  0  0  0  0  0  0  0  0  0  0  0
  -35.8613    2.6370  -45.4375 C   0  0  0  0  0  0  0  0  0  0  0  0
  -35.6798    3.3738  -44.1797 N   0  0  0  0  0  0  0  0  0  0  0  0
  -36.8843    4.1453  -43.8427 C   0  0  0  0  0  0  0  0  0  0  0  0
  -36.6846    4.8330  -42.4901 C   0  0  0  0  0  0  0  0  0  0  0  0
  -35.5048    5.7065  -42.5569 N   0  0  0  0  0  0  0  0  0  0  0  0
  -34.3002    4.9349  -42.8939 C   0  0  0  0  0  0  0  0  0  0  0  0
  -34.4999    4.2474  -44.2465 C   0  0  0  0  0  0  0  0  0  0  0  0
  -37.1380    0.8090  -46.5649 C   0  0  0  0  0  0  0  0  0  0  0  0
  -38.1843   -0.3071  -46.5852 C   0  0  0  0  0  0  0  0  0  0  0  0
  -38.4597    1.0138  -47.3080 C   0  0  0  0  0  0  0  0  0  0  0  0
  -35.2934    6.5642  -41.0928 X   0  0  0  0  0  0  0  0  0  0  0  0
  1  2  1  0  0  0  0
  2  3  1  0  0  0  0
  2 10  1  0  0  0  0
  3  4  1  0  0  0  0
  4  5  1  0  0  0  0
  4  9  1  0  0  0  0
  5  6  1  0  0  0  0
  6  7  1  0  0  0  0
  7  8  1  0  0  0  0
  7 13  1  0  0  0  0
  8  9  1  0  0  0  0
 10 11  1  0  0  0  0
 10 12  1  0  0  0  0
 11 12  1  0  0  0  0
M  END
> <Index>
14777

> <PropertyFieldDistance>
nan

$$$$
8628614
BBcorina  12272117083D 1   1.00000     0.00000 
CORINA 4.3.0 0026  30.10.2019
 11 11  0  0  0  0  0  0  0  0999 V2000
  -39.7683    5.5719  -40.4628 C   0  0  0  0  0  0  0  0  0  0  0  0
  -38.8724    5.5091  -41.6202 N   0  0  0  0  0  0  0  0  0  0  0  0
  -37.5509    5.3148  -41.4398 C   0  0  0  0  0  0  0  0  0  0  0  0
  -37.1035    5.1921  -40.3192 O   0  0  0  0  0  0  0  0  0  0  0  0
  -36.6293    5.2502  -42.6303 C   0  0  0  0  0  0  0  0  0  0  0  0
  -36.9723    4.0211  -43.4763 C   0  0  0  0  0  0  0  0  0  0  0  0
  -36.0215    3.9203  -44.5930 N   0  0  0  0  0  0  0  0  0  0  0  0
  -34.6419    3.8204  -44.0951 C   0  0  0  0  0  0  0  0  0  0  0  0
  -34.3222    5.0515  -43.2429 C   0  0  0  0  0  0  0  0  0  0  0  0
  -35.2751    5.1506  -42.1812 O   0  0  0  0  0  0  0  0  0  0  0  0
  -36.4046    2.5974  -45.6065 X   0  0  0  0  0  0  0  0  0  0  0  0
  1  2  1  0  0  0  0
  2  3  1  0  0  0  0
  3  4  2  0  0  0  0
  3  5  1  0  0  0  0
  5  6  1  0  0  0  0
  5 10  1  0  0  0  0
  6  7  1  0  0  0  0
  7  8  1  0  0  0  0
  7 11  1  0  0  0  0
  8  9  1  0  0  0  0
  9 10  1  0  0  0  0
M  END
> <Index>
14778

> <PropertyFieldDistance>
nan

$$$$
7634336
BBcorina  12272117083D 1   1.00000     0.00000 
CORINA 4.3.0 0026  30.10.2019
 10 10  0  0  0  0  0  0  0  0999 V2000
  -37.3169    1.1886  -45.2668 C   0  0  0  0  0  0  0  0  0  0  0  0
  -36.1881    1.7816  -44.6216 O   0  0  0  0  0  0  0  0  0  0  0  0
  -36.2075    3.2105  -44.6138 C   0  0  0  0  0  0  0  0  0  0  0  0
  -36.9236    3.7039  -43.3550 C   0  0  0  0  0  0  0  0  0  0  0  0
  -36.1836    3.1971  -42.1154 C   0  0  0  0  0  0  0  0  0  0  0  0
  -34.7482    3.7266  -42.1263 C   0  0  0  0  0  0  0  0  0  0  0  0
  -34.0321    3.2332  -43.3851 C   0  0  0  0  0  0  0  0  0  0  0  0
  -34.7721    3.7401  -44.6246 C   0  0  0  0  0  0  0  0  0  0  0  0
  -32.6540    3.7417  -43.3955 N   0  0  0  0  0  0  0  0  0  0  0  0
  -32.6292    5.4474  -43.2765 X   0  0  0  0  0  0  0  0  0  0  0  0
  1  2  1  0  0  0  0
  2  3  1  0  0  0  0
  3  4  1  0  0  0  0
  3  8  1  0  0  0  0
  4  5  1  0  0  0  0
  5  6  1  0  0  0  0
  6  7  1  0  0  0  0
  7  8  1  0  0  0  0
  7  9  1  0  0  0  0
  9 10  1  0  0  0  0
M  END
> <Index>
14808

> <PropertyFieldDistance>
nan

$$$$
5455916
BBcorina  12272117083D 1   1.00000     0.00000 
CORINA 4.3.0 0026  30.10.2019
 10 10  0  0  0  0  0  0  0  0999 V2000
  -37.3348    4.4951  -44.1492 C   0  0  0  0  0  0  0  0  0  0  0  0
  -36.5948    3.9883  -42.9097 C   0  0  0  0  0  0  0  0  0  0  0  0
  -36.5740    2.4584  -42.9181 C   0  0  0  0  0  0  0  0  0  0  0  0
  -35.8579    1.9650  -44.1769 C   0  0  0  0  0  0  0  0  0  0  0  0
  -35.8371    0.4352  -44.1853 C   0  0  0  0  0  0  0  0  0  0  0  0
  -34.4225    2.4946  -44.1877 C   0  0  0  0  0  0  0  0  0  0  0  0
  -34.4433    4.0244  -44.1793 C   0  0  0  0  0  0  0  0  0  0  0  0
  -35.1594    4.5178  -42.9205 C   0  0  0  0  0  0  0  0  0  0  0  0
  -33.0651    4.5329  -44.1898 N   0  0  0  0  0  0  0  0  0  0  0  0
  -32.1690    3.9014  -42.8774 X   0  0  0  0  0  0  0  0  0  0  0  0
  1  2  1  0  0  0  0
  2  3  1  0  0  0  0
  2  8  1  0  0  0  0
  3  4  1  0  0  0  0
  4  5  1  0  0  0  0
  4  6  1  0  0  0  0
  6  7  1  0  0  0  0
  7  8  1  0  0  0  0
  7  9  1  0  0  0  0
  9 10  1  0  0  0  0
M  END
> <Index>
14809

> <PropertyFieldDistance>
nan

$$$$
15269432
BBcorina  12272117083D 1   1.00000     0.00000 
CORINA 4.3.0 0026  30.10.2019
  9  9  0  0  0  0  0  0  0  0999 V2000
  -36.7641    3.4328  -41.7300 C   0  0  0  0  0  0  0  0  0  0  0  0
  -35.8475    3.6347  -42.9384 C   0  0  0  0  0  0  0  0  0  0  0  0
  -36.6639    4.1785  -44.1126 C   0  0  0  0  0  0  0  0  0  0  0  0
  -35.7474    4.3803  -45.3209 C   0  0  0  0  0  0  0  0  0  0  0  0
  -35.1187    3.0418  -45.7134 C   0  0  0  0  0  0  0  0  0  0  0  0
  -34.3023    2.4981  -44.5392 C   0  0  0  0  0  0  0  0  0  0  0  0
  -35.2188    2.2962  -43.3308 C   0  0  0  0  0  0  0  0  0  0  0  0
  -34.4349    1.7741  -42.2035 N   0  0  0  0  0  0  0  0  0  0  0  0
  -34.4117    0.0643  -42.2129 X   0  0  0  0  0  0  0  0  0  0  0  0
  1  2  1  0  0  0  0
  2  3  1  0  0  0  0
  2  7  1  0  0  0  0
  3  4  1  0  0  0  0
  4  5  1  0  0  0  0
  5  6  1  0  0  0  0
  6  7  1  0  0  0  0
  7  8  1  0  0  0  0
  8  9  1  0  0  0  0
M  END
> <Index>
14812

> <PropertyFieldDistance>
nan

$$$$
5343146
BBcorina  12272117083D 1   1.00000     0.00000 
CORINA 4.3.0 0026  30.10.2019
  9 10  0  0  0  0  0  0  0  0999 V2000
  -33.9052    3.8837  -42.5374 N   0  0  0  0  0  0  0  0  0  0  0  0
  -35.2753    3.3539  -42.5272 C   0  0  0  0  0  0  0  0  0  0  0  0
  -36.2369    4.3328  -43.2389 C   0  0  0  0  0  0  0  0  0  0  0  0
  -36.8110    3.5145  -44.4391 C   0  0  0  0  0  0  0  0  0  0  0  0
  -35.6071    3.3634  -45.4184 C   0  0  0  0  0  0  0  0  0  0  0  0
  -34.6438    2.3869  -44.7057 C   0  0  0  0  0  0  0  0  0  0  0  0
  -35.3563    2.0400  -43.3629 C   0  0  0  0  0  0  0  0  0  0  0  0
  -36.8591    2.0755  -43.8143 C   0  0  0  0  0  0  0  0  0  0  0  0
  -33.6315    4.9013  -41.1907 X   0  0  0  0  0  0  0  0  0  0  0  0
  1  2  1  0  0  0  0
  1  9  1  0  0  0  0
  2  3  1  0  0  0  0
  2  7  1  0  0  0  0
  3  4  1  0  0  0  0
  4  5  1  0  0  0  0
  4  8  1  0  0  0  0
  5  6  1  0  0  0  0
  6  7  1  0  0  0  0
  7  8  1  0  0  0  0
M  END
> <Index>
14815

> <PropertyFieldDistance>
nan

$$$$
16644228
BBcorina  12272117083D 1   1.00000     0.00000 
CORINA 4.3.0 0026  30.10.2019
 11 11  0  0  0  0  0  0  0  0999 V2000
  -36.6768    2.3117  -45.0715 C   0  0  0  0  0  0  0  0  0  0  0  0
  -36.0365    3.3440  -44.2455 N   0  0  0  0  0  0  0  0  0  0  0  0
  -37.0312    4.0307  -43.3880 C   0  0  0  0  0  0  0  0  0  0  0  0
  -36.4689    5.2995  -42.7220 C   0  0  0  0  0  0  0  0  0  0  0  0
  -35.1237    5.1181  -42.2336 N   0  0  0  0  0  0  0  0  0  0  0  0
  -34.9227    5.8339  -40.9666 C   0  0  0  0  0  0  0  0  0  0  0  0
  -34.1498    5.5647  -43.2559 C   0  0  0  0  0  0  0  0  0  0  0  0
  -33.9365    4.5573  -44.2928 C   0  0  0  0  0  0  0  0  0  0  0  0
  -35.2383    4.2336  -45.0544 C   0  0  0  0  0  0  0  0  0  0  0  0
  -32.9363    5.0564  -45.2460 N   0  0  0  0  0  0  0  0  0  0  0  0
  -33.4268    6.5475  -45.9243 X   0  0  0  0  0  0  0  0  0  0  0  0
  1  2  1  0  0  0  0
  2  3  1  0  0  0  0
  2  9  1  0  0  0  0
  3  4  1  0  0  0  0
  4  5  1  0  0  0  0
  5  6  1  0  0  0  0
  5  7  1  0  0  0  0
  7  8  1  0  0  0  0
  8  9  1  0  0  0  0
  8 10  1  0  0  0  0
 10 11  1  0  0  0  0
M  END
> <Index>
14817

> <PropertyFieldDistance>
nan

$$$$
12340308
BBcorina  12272117083D 1   1.00000     0.00000 
CORINA 4.3.0 0026  30.10.2019
  9  9  0  0  0  0  0  0  0  0999 V2000
  -36.3511    2.2197  -44.6625 C   0  0  0  0  0  0  0  0  0  0  0  0
  -36.0474    3.6486  -44.5075 N   0  0  0  0  0  0  0  0  0  0  0  0
  -37.0948    4.3295  -43.7244 C   0  0  0  0  0  0  0  0  0  0  0  0
  -36.4026    4.9957  -42.5168 C   0  0  0  0  0  0  0  0  0  0  0  0
  -34.9315    5.1341  -42.9899 C   0  0  0  0  0  0  0  0  0  0  0  0
  -34.7493    3.8437  -43.8272 C   0  0  0  0  0  0  0  0  0  0  0  0
  -33.6312    4.0266  -44.8555 C   0  0  0  0  0  0  0  0  0  0  0  0
  -33.5823    2.8542  -45.7394 N   0  0  0  0  0  0  0  0  0  0  0  0
  -32.3433    3.0181  -46.9065 X   0  0  0  0  0  0  0  0  0  0  0  0
  1  2  1  0  0  0  0
  2  3  1  0  0  0  0
  2  6  1  0  0  0  0
  3  4  1  0  0  0  0
  4  5  1  0  0  0  0
  5  6  1  0  0  0  0
  6  7  1  0  0  0  0
  7  8  1  0  0  0  0
  8  9  1  0  0  0  0
M  END
> <Index>
14819

> <PropertyFieldDistance>
nan

$$$$
6078794
BBcorina  12272117083D 1   1.00000     0.00000 
CORINA 4.3.0 0026  30.10.2019
  9  9  0  0  0  0  0  0  0  0999 V2000
  -36.1035    1.1369  -47.0797 N   0  0  0  0  0  0  0  0  0  0  0  0
  -35.6327    1.6697  -45.7942 C   0  0  0  0  0  0  0  0  0  0  0  0
  -36.6921    2.6077  -45.2122 C   0  0  0  0  0  0  0  0  0  0  0  0
  -36.2213    3.1405  -43.9267 N   0  0  0  0  0  0  0  0  0  0  0  0
  -37.1047    4.2301  -43.4477 C   0  0  0  0  0  0  0  0  0  0  0  0
  -36.1909    5.2128  -42.7527 C   0  0  0  0  0  0  0  0  0  0  0  0
  -34.9506    4.9816  -43.1122 C   0  0  0  0  0  0  0  0  0  0  0  0
  -34.9142    3.8224  -44.0810 C   0  0  0  0  0  0  0  0  0  0  0  0
  -34.9466    0.0813  -47.7661 X   0  0  0  0  0  0  0  0  0  0  0  0
  1  2  1  0  0  0  0
  1  9  1  0  0  0  0
  2  3  1  0  0  0  0
  3  4  1  0  0  0  0
  4  5  1  0  0  0  0
  4  8  1  0  0  0  0
  5  6  1  0  0  0  0
  6  7  2  0  0  0  0
  7  8  1  0  0  0  0
M  END
> <Index>
14826

> <PropertyFieldDistance>
nan

$$$$
12105142
BBcorina  12272117083D 1   1.00000     0.00000 
CORINA 4.3.0 0026  30.10.2019
  8  8  0  0  0  0  0  0  0  0999 V2000
  -36.0172    3.5887  -44.4950 N   0  0  0  0  0  0  0  0  0  0  0  0
  -36.3920    2.1711  -44.5833 C   0  0  0  0  0  0  0  0  0  0  0  0
  -36.1073    1.6618  -45.9728 C   0  0  0  0  0  0  0  0  0  0  0  0
  -35.0104    1.0475  -46.3237 C   0  0  0  0  0  0  0  0  0  0  0  0
  -35.0402    0.6747  -47.7877 C   0  0  0  0  0  0  0  0  0  0  0  0
  -36.5311    0.7845  -48.1894 C   0  0  0  0  0  0  0  0  0  0  0  0
  -37.0540    1.7958  -47.1428 C   0  0  0  0  0  0  0  0  0  0  0  0
  -36.3248    4.2075  -42.9309 X   0  0  0  0  0  0  0  0  0  0  0  0
  1  2  1  0  0  0  0
  1  8  1  0  0  0  0
  2  3  1  0  0  0  0
  3  4  2  0  0  0  0
  3  7  1  0  0  0  0
  4  5  1  0  0  0  0
  5  6  1  0  0  0  0
  6  7  1  0  0  0  0
M  END
> <Index>
14830

> <PropertyFieldDistance>
nan

$$$$
15269554
BBcorina  12272117083D 1   1.00000     0.00000 
CORINA 4.3.0 0026  30.10.2019
  9  9  0  0  0  0  0  0  0  0999 V2000
  -34.6251    1.6591  -43.6145 N   0  0  0  0  0  0  0  0  0  0  0  0
  -35.4090    2.1812  -44.7418 C   0  0  0  0  0  0  0  0  0  0  0  0
  -34.9383    3.5968  -45.0829 C   0  0  0  0  0  0  0  0  0  0  0  0
  -34.5152    4.3387  -43.8242 C   0  0  0  0  0  0  0  0  0  0  0  0
  -35.6581    4.6179  -42.8643 C   0  0  0  0  0  0  0  0  0  0  0  0
  -36.2055    3.3141  -42.2791 C   0  0  0  0  0  0  0  0  0  0  0  0
  -37.2384    2.7525  -43.2325 C   0  0  0  0  0  0  0  0  0  0  0  0
  -36.8733    2.2334  -44.3616 C   0  0  0  0  0  0  0  0  0  0  0  0
  -34.7081   -0.0476  -43.5486 X   0  0  0  0  0  0  0  0  0  0  0  0
  1  2  1  0  0  0  0
  1  9  1  0  0  0  0
  2  3  1  0  0  0  0
  2  8  1  0  0  0  0
  3  4  1  0  0  0  0
  4  5  1  0  0  0  0
  5  6  1  0  0  0  0
  6  7  1  0  0  0  0
  7  8  2  0  0  0  0
M  END
> <Index>
14833

> <PropertyFieldDistance>
nan

$$$$
7023722
BBcorina  12272117083D 1   1.00000     0.00000 
CORINA 4.3.0 0026  30.10.2019
  8  8  0  0  0  0  0  0  0  0999 V2000
  -36.0173    3.5926  -44.4913 N   0  0  0  0  0  0  0  0  0  0  0  0
  -36.3933    2.1752  -44.5752 C   0  0  0  0  0  0  0  0  0  0  0  0
  -36.1059    1.6538  -45.9847 C   0  0  0  0  0  0  0  0  0  0  0  0
  -36.5677    0.1884  -46.1234 C   0  0  0  0  0  0  0  0  0  0  0  0
  -37.0551   -0.0471  -47.5635 C   0  0  0  0  0  0  0  0  0  0  0  0
  -37.9973    1.1328  -47.9194 C   0  0  0  0  0  0  0  0  0  0  0  0
  -37.0990    2.5711  -47.2194 S   0  0  0  0  0  0  0  0  0  0  0  0
  -36.3230    4.2164  -42.9287 X   0  0  0  0  0  0  0  0  0  0  0  0
  1  2  1  0  0  0  0
  1  8  1  0  0  0  0
  2  3  1  0  0  0  0
  3  4  1  0  0  0  0
  3  7  1  0  0  0  0
  4  5  1  0  0  0  0
  5  6  1  0  0  0  0
  6  7  1  0  0  0  0
M  END
> <Index>
14841

> <PropertyFieldDistance>
nan

$$$$
10543062
BBcorina  12272117083D 1   1.00000     0.00000 
CORINA 4.3.0 0026  30.10.2019
 10 10  0  0  0  0  0  0  0  0999 V2000
  -36.3032    2.9501  -45.5864 O   0  0  0  0  0  0  0  0  0  0  0  0
  -35.9754    3.7210  -44.4449 N   0  0  0  0  0  0  0  0  0  0  0  0
  -37.0533    4.0840  -43.5333 C   0  0  0  0  0  0  0  0  0  0  0  0
  -36.6373    5.2656  -42.6561 C   0  0  0  0  0  0  0  0  0  0  0  0
  -35.2760    4.9521  -42.0235 C   0  0  0  0  0  0  0  0  0  0  0  0
  -34.2213    4.9239  -43.1325 C   0  0  0  0  0  0  0  0  0  0  0  0
  -32.9683    4.3719  -42.6003 N   0  0  0  0  0  0  0  0  0  0  0  0
  -34.7000    4.0691  -44.2709 C   0  0  0  0  0  0  0  0  0  0  0  0
  -33.8825    3.6743  -45.0751 O   0  0  0  0  0  0  0  0  0  0  0  0
  -33.1711    2.7433  -42.1202 X   0  0  0  0  0  0  0  0  0  0  0  0
  1  2  1  0  0  0  0
  2  3  1  0  0  0  0
  2  8  1  0  0  0  0
  3  4  1  0  0  0  0
  4  5  1  0  0  0  0
  5  6  1  0  0  0  0
  6  7  1  0  0  0  0
  6  8  1  0  0  0  0
  7 10  1  0  0  0  0
  8  9  2  0  0  0  0
M  END
> <Index>
14846

> <PropertyFieldDistance>
nan

$$$$
8795360
BBcorina  12272117083D 1   1.00000     0.00000 
CORINA 4.3.0 0026  30.10.2019
 11 11  0  0  0  0  0  0  0  0999 V2000
  -35.8964    7.2938  -43.8985 C   0  0  0  0  0  0  0  0  0  0  0  0
  -35.8040    5.7999  -43.7232 C   0  0  0  0  0  0  0  0  0  0  0  0
  -36.8833    5.1418  -43.4276 C   0  0  0  0  0  0  0  0  0  0  0  0
  -36.9114    3.6549  -43.2214 C   0  0  0  0  0  0  0  0  0  0  0  0
  -35.7026    3.0402  -43.7847 N   0  0  0  0  0  0  0  0  0  0  0  0
  -35.7451    3.0446  -45.2531 C   0  0  0  0  0  0  0  0  0  0  0  0
  -36.8752    2.1318  -45.7334 C   0  0  0  0  0  0  0  0  0  0  0  0
  -36.9178    2.1362  -47.2017 N   0  0  0  0  0  0  0  0  0  0  0  0
  -34.5015    3.7332  -43.2899 C   0  0  0  0  0  0  0  0  0  0  0  0
  -34.4664    5.1374  -43.8988 C   0  0  0  0  0  0  0  0  0  0  0  0
  -38.1698    1.1262  -47.7815 X   0  0  0  0  0  0  0  0  0  0  0  0
  1  2  1  0  0  0  0
  2  3  2  0  0  0  0
  2 10  1  0  0  0  0
  3  4  1  0  0  0  0
  4  5  1  0  0  0  0
  5  6  1  0  0  0  0
  5  9  1  0  0  0  0
  6  7  1  0  0  0  0
  7  8  1  0  0  0  0
  8 11  1  0  0  0  0
  9 10  1  0  0  0  0
M  END
> <Index>
14849

> <PropertyFieldDistance>
nan

$$$$
11678526
BBcorina  12272117083D 1   1.00000     0.00000 
CORINA 4.3.0 0026  30.10.2019
 10 10  0  0  0  0  0  0  0  0999 V2000
  -36.1823    7.7481  -41.8249 F   0  0  0  0  0  0  0  0  0  0  0  0
  -35.1535    7.0102  -42.2966 C   0  0  0  0  0  0  0  0  0  0  0  0
  -35.3441    5.7500  -42.6263 C   0  0  0  0  0  0  0  0  0  0  0  0
  -36.7058    5.1020  -42.4871 C   0  0  0  0  0  0  0  0  0  0  0  0
  -37.0342    4.3878  -43.8032 C   0  0  0  0  0  0  0  0  0  0  0  0
  -35.9394    3.4721  -44.1475 N   0  0  0  0  0  0  0  0  0  0  0  0
  -34.6975    4.2001  -44.4365 C   0  0  0  0  0  0  0  0  0  0  0  0
  -34.2105    4.9016  -43.1634 C   0  0  0  0  0  0  0  0  0  0  0  0
  -33.9291    7.5656  -42.4299 F   0  0  0  0  0  0  0  0  0  0  0  0
  -36.3751    2.4603  -45.4554 X   0  0  0  0  0  0  0  0  0  0  0  0
  1  2  1  0  0  0  0
  2  3  2  0  0  0  0
  2  9  1  0  0  0  0
  3  4  1  0  0  0  0
  3  8  1  0  0  0  0
  4  5  1  0  0  0  0
  5  6  1  0  0  0  0
  6  7  1  0  0  0  0
  6 10  1  0  0  0  0
  7  8  1  0  0  0  0
M  END
> <Index>
14857

> <PropertyFieldDistance>
nan

$$$$
14938978
BBcorina  12272117083D 1   1.00000     0.00000 
CORINA 4.3.0 0026  30.10.2019
 11 12  0  0  0  0  0  0  0  0999 V2000
  -35.7476    2.4631  -44.1511 C   0  0  0  0  0  0  0  0  0  0  0  0
  -36.4174    3.7442  -43.8904 N   0  0  0  0  0  0  0  0  0  0  0  0
  -37.3888    4.0642  -44.9643 C   0  0  0  0  0  0  0  0  0  0  0  0
  -36.6637    4.8856  -45.9429 N   0  0  0  0  0  0  0  0  0  0  0  0
  -35.5391    5.3772  -45.3770 C   0  0  0  0  0  0  0  0  0  0  0  0
  -34.7316    6.1057  -45.9136 O   0  0  0  0  0  0  0  0  0  0  0  0
  -35.4636    4.8632  -43.9660 C   0  0  0  0  0  0  0  0  0  0  0  0
  -34.0599    4.5734  -43.4322 C   0  0  0  0  0  0  0  0  0  0  0  0
  -34.5465    5.1376  -42.1517 N   0  0  0  0  0  0  0  0  0  0  0  0
  -35.5887    5.9147  -42.8622 C   0  0  0  0  0  0  0  0  0  0  0  0
  -33.3779    6.1736  -41.4552 X   0  0  0  0  0  0  0  0  0  0  0  0
  1  2  1  0  0  0  0
  2  3  1  0  0  0  0
  2  7  1  0  0  0  0
  3  4  1  0  0  0  0
  4  5  1  0  0  0  0
  5  6  2  0  0  0  0
  5  7  1  0  0  0  0
  7  8  1  0  0  0  0
  7 10  1  0  0  0  0
  8  9  1  0  0  0  0
  9 10  1  0  0  0  0
  9 11  1  0  0  0  0
M  END
> <Index>
14859

> <PropertyFieldDistance>
nan

$$$$
9785628
BBcorina  12272117083D 1   1.00000     0.00000 
CORINA 4.3.0 0026  30.10.2019
 14 15  0  0  0  0  0  0  0  0999 V2000
  -35.1079    0.5889  -43.8700 C   0  0  0  0  0  0  0  0  0  0  0  0
  -35.9515    1.1379  -44.9915 C   0  0  0  0  0  0  0  0  0  0  0  0
  -36.3206    0.3533  -45.9857 N   0  0  0  0  0  0  0  0  0  0  0  0
  -37.0615    0.8344  -46.9702 C   0  0  0  0  0  0  0  0  0  0  0  0
  -37.4523    2.1596  -46.9620 C   0  0  0  0  0  0  0  0  0  0  0  0
  -37.0865    2.9531  -45.9692 N   0  0  0  0  0  0  0  0  0  0  0  0
  -36.3433    2.4750  -44.9799 C   0  0  0  0  0  0  0  0  0  0  0  0
  -35.9570    3.3054  -43.9344 N   0  0  0  0  0  0  0  0  0  0  0  0
  -37.0244    4.2572  -43.5959 C   0  0  0  0  0  0  0  0  0  0  0  0
  -36.5920    5.0976  -42.3919 C   0  0  0  0  0  0  0  0  0  0  0  0
  -35.3436    5.8030  -42.7133 N   0  0  0  0  0  0  0  0  0  0  0  0
  -34.2762    4.8513  -43.0518 C   0  0  0  0  0  0  0  0  0  0  0  0
  -34.7086    4.0110  -44.2557 C   0  0  0  0  0  0  0  0  0  0  0  0
  -34.8685    6.8247  -41.4269 X   0  0  0  0  0  0  0  0  0  0  0  0
  1  2  1  0  0  0  0
  2  3  2  0  0  0  0
  2  7  1  0  0  0  0
  3  4  1  0  0  0  0
  4  5  2  0  0  0  0
  5  6  1  0  0  0  0
  6  7  2  0  0  0  0
  7  8  1  0  0  0  0
  8  9  1  0  0  0  0
  8 13  1  0  0  0  0
  9 10  1  0  0  0  0
 10 11  1  0  0  0  0
 11 12  1  0  0  0  0
 11 14  1  0  0  0  0
 12 13  1  0  0  0  0
M  END
> <Index>
14861

> <PropertyFieldDistance>
nan

$$$$
15088536
BBcorina  12272117083D 1   1.00000     0.00000 
CORINA 4.3.0 0026  30.10.2019
 11 11  0  0  0  0  0  0  0  0999 V2000
  -29.4147    4.4854  -44.3081 C   0  0  0  0  0  0  0  0  0  0  0  0
  -30.5425    5.4704  -43.9934 C   0  0  0  0  0  0  0  0  0  0  0  0
  -31.8353    4.6971  -43.7261 C   0  0  0  0  0  0  0  0  0  0  0  0
  -32.9630    5.6822  -43.4115 C   0  0  0  0  0  0  0  0  0  0  0  0
  -34.2558    4.9088  -43.1443 C   0  0  0  0  0  0  0  0  0  0  0  0
  -35.3534    5.8832  -42.7079 C   0  0  0  0  0  0  0  0  0  0  0  0
  -36.6587    5.1099  -42.5007 C   0  0  0  0  0  0  0  0  0  0  0  0
  -37.0290    4.3869  -43.7977 C   0  0  0  0  0  0  0  0  0  0  0  0
  -35.9480    3.4664  -44.1723 N   0  0  0  0  0  0  0  0  0  0  0  0
  -34.6958    4.1916  -44.4226 C   0  0  0  0  0  0  0  0  0  0  0  0
  -36.3900    2.5211  -45.5270 X   0  0  0  0  0  0  0  0  0  0  0  0
  1  2  1  0  0  0  0
  2  3  1  0  0  0  0
  3  4  1  0  0  0  0
  4  5  1  0  0  0  0
  5  6  1  0  0  0  0
  5 10  1  0  0  0  0
  6  7  1  0  0  0  0
  7  8  1  0  0  0  0
  8  9  1  0  0  0  0
  9 10  1  0  0  0  0
  9 11  1  0  0  0  0
M  END
> <Index>
14868

> <PropertyFieldDistance>
nan

$$$$
7793768
BBcorina  12272117083D 1   1.00000     0.00000 
CORINA 4.3.0 0026  30.10.2019
 14 15  0  0  0  0  0  0  0  0999 V2000
  -36.7744    3.6364  -47.2759 Cl  0  0  0  0  0  0  0  0  0  0  0  0
  -36.6812    2.2519  -46.2327 C   0  0  0  0  0  0  0  0  0  0  0  0
  -36.9565    0.9902  -46.7183 C   0  0  0  0  0  0  0  0  0  0  0  0
  -36.8878   -0.0675  -45.9312 N   0  0  0  0  0  0  0  0  0  0  0  0
  -36.5562    0.0310  -44.6576 C   0  0  0  0  0  0  0  0  0  0  0  0
  -36.2598    1.2557  -44.0962 C   0  0  0  0  0  0  0  0  0  0  0  0
  -36.3264    2.3992  -44.8909 C   0  0  0  0  0  0  0  0  0  0  0  0
  -36.0409    3.6549  -44.3611 N   0  0  0  0  0  0  0  0  0  0  0  0
  -36.9583    3.9834  -43.2610 C   0  0  0  0  0  0  0  0  0  0  0  0
  -36.6643    5.3994  -42.7602 C   0  0  0  0  0  0  0  0  0  0  0  0
  -35.2655    5.4786  -42.3164 N   0  0  0  0  0  0  0  0  0  0  0  0
  -34.3477    5.1505  -43.4162 C   0  0  0  0  0  0  0  0  0  0  0  0
  -34.6418    3.7344  -43.9171 C   0  0  0  0  0  0  0  0  0  0  0  0
  -34.9155    7.0208  -41.6657 X   0  0  0  0  0  0  0  0  0  0  0  0
  1  2  1  0  0  0  0
  2  3  2  0  0  0  0
  2  7  1  0  0  0  0
  3  4  1  0  0  0  0
  4  5  2  0  0  0  0
  5  6  1  0  0  0  0
  6  7  2  0  0  0  0
  7  8  1  0  0  0  0
  8  9  1  0  0  0  0
  8 13  1  0  0  0  0
  9 10  1  0  0  0  0
 10 11  1  0  0  0  0
 11 12  1  0  0  0  0
 11 14  1  0  0  0  0
 12 13  1  0  0  0  0
M  END
> <Index>
14870

> <PropertyFieldDistance>
nan

$$$$
10963908
BBcorina  12272117083D 1   1.00000     0.00000 
CORINA 4.3.0 0026  30.10.2019
  9  9  0  0  0  0  0  0  0  0999 V2000
  -37.3609    6.7256  -40.9099 F   0  0  0  0  0  0  0  0  0  0  0  0
  -37.6840    6.1401  -42.1386 C   0  0  0  0  0  0  0  0  0  0  0  0
  -36.6101    5.1171  -42.5144 C   0  0  0  0  0  0  0  0  0  0  0  0
  -37.0250    4.3871  -43.7945 C   0  0  0  0  0  0  0  0  0  0  0  0
  -35.9556    3.4605  -44.1936 N   0  0  0  0  0  0  0  0  0  0  0  0
  -34.6940    4.1834  -44.4108 C   0  0  0  0  0  0  0  0  0  0  0  0
  -34.3026    4.9154  -43.1244 C   0  0  0  0  0  0  0  0  0  0  0  0
  -35.3668    5.7882  -42.7358 O   0  0  0  0  0  0  0  0  0  0  0  0
  -36.4018    2.5727  -45.5854 X   0  0  0  0  0  0  0  0  0  0  0  0
  1  2  1  0  0  0  0
  2  3  1  0  0  0  0
  3  4  1  0  0  0  0
  3  8  1  0  0  0  0
  4  5  1  0  0  0  0
  5  6  1  0  0  0  0
  5  9  1  0  0  0  0
  6  7  1  0  0  0  0
  7  8  1  0  0  0  0
M  END
> <Index>
14872

> <PropertyFieldDistance>
nan

$$$$
17655896
BBcorina  12272117083D 1   1.00000     0.00000 
CORINA 4.3.0 0026  30.10.2019
 12 12  0  0  0  0  0  0  0  0999 V2000
  -35.9230    1.9681  -46.1291 C   0  0  0  0  0  0  0  0  0  0  0  0
  -36.4318    2.1933  -44.7038 C   0  0  0  0  0  0  0  0  0  0  0  0
  -35.7746    1.1822  -43.7620 C   0  0  0  0  0  0  0  0  0  0  0  0
  -36.0932    3.5561  -44.2726 N   0  0  0  0  0  0  0  0  0  0  0  0
  -36.9818    4.0022  -43.1905 C   0  0  0  0  0  0  0  0  0  0  0  0
  -38.4368    3.9142  -43.6553 C   0  0  0  0  0  0  0  0  0  0  0  0
  -36.6492    5.4508  -42.8253 C   0  0  0  0  0  0  0  0  0  0  0  0
  -35.2405    5.5390  -42.4161 N   0  0  0  0  0  0  0  0  0  0  0  0
  -34.3519    5.0928  -43.4981 C   0  0  0  0  0  0  0  0  0  0  0  0
  -34.6844    3.6443  -43.8634 C   0  0  0  0  0  0  0  0  0  0  0  0
  -33.7884    3.1896  -45.0171 C   0  0  0  0  0  0  0  0  0  0  0  0
  -34.8463    7.1253  -41.9141 X   0  0  0  0  0  0  0  0  0  0  0  0
  1  2  1  0  0  0  0
  2  3  1  0  0  0  0
  2  4  1  0  0  0  0
  4  5  1  0  0  0  0
  4 10  1  0  0  0  0
  5  6  1  0  0  0  0
  5  7  1  0  0  0  0
  7  8  1  0  0  0  0
  8  9  1  0  0  0  0
  8 12  1  0  0  0  0
  9 10  1  0  0  0  0
 10 11  1  0  0  0  0
M  END
> <Index>
14874

> <PropertyFieldDistance>
nan

$$$$
10123128
BBcorina  12272117083D 1   1.00000     0.00000 
CORINA 4.3.0 0026  30.10.2019
 13 13  0  0  0  0  0  0  0  0999 V2000
  -34.3924    9.0897  -39.3546 C   0  0  0  0  0  0  0  0  0  0  0  0
  -35.9687    8.2060  -39.5114 S   0  0  0  0  0  0  0  0  0  0  0  0
  -37.0545    9.1225  -39.5307 O   0  0  0  0  0  0  0  0  0  0  0  0
  -35.9876    7.0656  -38.6639 O   0  0  0  0  0  0  0  0  0  0  0  0
  -35.9388    7.5762  -41.0427 N   0  0  0  0  0  0  0  0  0  0  0  0
  -34.9460    6.5589  -41.3971 C   0  0  0  0  0  0  0  0  0  0  0  0
  -35.3535    5.8833  -42.7079 C   0  0  0  0  0  0  0  0  0  0  0  0
  -36.6585    5.1099  -42.5008 C   0  0  0  0  0  0  0  0  0  0  0  0
  -37.0291    4.3869  -43.7977 C   0  0  0  0  0  0  0  0  0  0  0  0
  -35.9480    3.4664  -44.1723 N   0  0  0  0  0  0  0  0  0  0  0  0
  -34.6958    4.1916  -44.4226 C   0  0  0  0  0  0  0  0  0  0  0  0
  -34.2559    4.9088  -43.1442 C   0  0  0  0  0  0  0  0  0  0  0  0
  -36.3899    2.5211  -45.5270 X   0  0  0  0  0  0  0  0  0  0  0  0
  1  2  1  0  0  0  0
  2  3  2  0  0  0  0
  2  4  2  0  0  0  0
  2  5  1  0  0  0  0
  5  6  1  0  0  0  0
  6  7  1  0  0  0  0
  7  8  1  0  0  0  0
  7 12  1  0  0  0  0
  8  9  1  0  0  0  0
  9 10  1  0  0  0  0
 10 11  1  0  0  0  0
 10 13  1  0  0  0  0
 11 12  1  0  0  0  0
M  END
> <Index>
14876

> <PropertyFieldDistance>
nan

$$$$
8961962
BBcorina  12272117083D 1   1.00000     0.00000 
CORINA 4.3.0 0026  30.10.2019
 14 14  0  0  0  0  0  0  0  0999 V2000
  -36.6891    0.2816  -46.7621 C   0  0  0  0  0  0  0  0  0  0  0  0
  -35.5972    0.1988  -45.6936 C   0  0  0  0  0  0  0  0  0  0  0  0
  -34.3337   -0.4131  -46.3019 C   0  0  0  0  0  0  0  0  0  0  0  0
  -36.0816   -0.6768  -44.5362 C   0  0  0  0  0  0  0  0  0  0  0  0
  -35.2977    1.5438  -45.1962 N   0  0  0  0  0  0  0  0  0  0  0  0
  -36.2667    2.2788  -44.6153 C   0  0  0  0  0  0  0  0  0  0  0  0
  -37.3649    1.7937  -44.4231 O   0  0  0  0  0  0  0  0  0  0  0  0
  -36.0166    3.5496  -44.2424 N   0  0  0  0  0  0  0  0  0  0  0  0
  -37.0874    4.4037  -43.7065 C   0  0  0  0  0  0  0  0  0  0  0  0
  -36.6071    5.0157  -42.3863 C   0  0  0  0  0  0  0  0  0  0  0  0
  -35.3220    5.6934  -42.6033 N   0  0  0  0  0  0  0  0  0  0  0  0
  -34.2808    4.7422  -43.0145 C   0  0  0  0  0  0  0  0  0  0  0  0
  -34.6644    4.1171  -44.3547 C   0  0  0  0  0  0  0  0  0  0  0  0
  -34.8436    6.5609  -41.2095 X   0  0  0  0  0  0  0  0  0  0  0  0
  1  2  1  0  0  0  0
  2  3  1  0  0  0  0
  2  4  1  0  0  0  0
  2  5  1  0  0  0  0
  5  6  1  0  0  0  0
  6  7  2  0  0  0  0
  6  8  1  0  0  0  0
  8  9  1  0  0  0  0
  8 13  1  0  0  0  0
  9 10  1  0  0  0  0
 10 11  1  0  0  0  0
 11 12  1  0  0  0  0
 11 14  1  0  0  0  0
 12 13  1  0  0  0  0
M  END
> <Index>
14877

> <PropertyFieldDistance>
nan

$$$$
8760056
BBcorina  12272117083D 1   1.00000     0.00000 
CORINA 4.3.0 0026  30.10.2019
 14 15  0  0  0  0  0  0  0  0999 V2000
  -39.2816    1.9985  -47.1294 C   0  0  0  0  0  0  0  0  0  0  0  0
  -37.9121    1.8216  -46.5260 C   0  0  0  0  0  0  0  0  0  0  0  0
  -37.1174    0.8860  -47.0045 N   0  0  0  0  0  0  0  0  0  0  0  0
  -35.9051    0.6967  -46.5022 C   0  0  0  0  0  0  0  0  0  0  0  0
  -35.4730    1.4994  -45.4649 C   0  0  0  0  0  0  0  0  0  0  0  0
  -36.3422    2.4779  -44.9776 C   0  0  0  0  0  0  0  0  0  0  0  0
  -37.5429    2.6066  -45.5339 N   0  0  0  0  0  0  0  0  0  0  0  0
  -35.9572    3.3052  -43.9352 N   0  0  0  0  0  0  0  0  0  0  0  0
  -37.0245    4.2569  -43.5964 C   0  0  0  0  0  0  0  0  0  0  0  0
  -36.5925    5.0969  -42.3920 C   0  0  0  0  0  0  0  0  0  0  0  0
  -35.3436    5.8023  -42.7133 N   0  0  0  0  0  0  0  0  0  0  0  0
  -34.2763    4.8506  -43.0521 C   0  0  0  0  0  0  0  0  0  0  0  0
  -34.7087    4.0108  -44.2562 C   0  0  0  0  0  0  0  0  0  0  0  0
  -34.8684    6.8234  -41.4266 X   0  0  0  0  0  0  0  0  0  0  0  0
  1  2  1  0  0  0  0
  2  3  2  0  0  0  0
  2  7  1  0  0  0  0
  3  4  1  0  0  0  0
  4  5  2  0  0  0  0
  5  6  1  0  0  0  0
  6  7  2  0  0  0  0
  6  8  1  0  0  0  0
  8  9  1  0  0  0  0
  8 13  1  0  0  0  0
  9 10  1  0  0  0  0
 10 11  1  0  0  0  0
 11 12  1  0  0  0  0
 11 14  1  0  0  0  0
 12 13  1  0  0  0  0
M  END
> <Index>
14879

> <PropertyFieldDistance>
nan

$$$$
13766960
BBcorina  12272117083D 1   1.00000     0.00000 
CORINA 4.3.0 0026  30.10.2019
 11 11  0  0  0  0  0  0  0  0999 V2000
  -40.6877    2.5124  -46.3699 C   0  0  0  0  0  0  0  0  0  0  0  0
  -40.1496    2.7602  -45.0442 O   0  0  0  0  0  0  0  0  0  0  0  0
  -38.9850    3.4239  -44.9735 C   0  0  0  0  0  0  0  0  0  0  0  0
  -38.4334    3.7857  -45.9858 O   0  0  0  0  0  0  0  0  0  0  0  0
  -38.3655    3.7175  -43.6315 C   0  0  0  0  0  0  0  0  0  0  0  0
  -37.0530    4.4782  -43.8312 C   0  0  0  0  0  0  0  0  0  0  0  0
  -36.4385    4.8666  -42.4634 C   0  0  0  0  0  0  0  0  0  0  0  0
  -34.9374    5.0165  -42.8253 C   0  0  0  0  0  0  0  0  0  0  0  0
  -34.7234    3.9144  -43.8840 C   0  0  0  0  0  0  0  0  0  0  0  0
  -36.0427    3.6040  -44.4644 N   0  0  0  0  0  0  0  0  0  0  0  0
  -36.0299    3.8118  -46.1617 X   0  0  0  0  0  0  0  0  0  0  0  0
  1  2  1  0  0  0  0
  2  3  1  0  0  0  0
  3  4  2  0  0  0  0
  3  5  1  0  0  0  0
  5  6  1  0  0  0  0
  6  7  1  0  0  0  0
  6 10  1  0  0  0  0
  7  8  1  0  0  0  0
  8  9  1  0  0  0  0
  9 10  1  0  0  0  0
 10 11  1  0  0  0  0
M  END
> <Index>
14880

> <PropertyFieldDistance>
nan

$$$$
8254298
BBcorina  12272117083D 1   1.00000     0.00000 
CORINA 4.3.0 0026  30.10.2019
  9  9  0  0  0  0  0  0  0  0999 V2000
  -34.9266    6.4323  -41.2874 C   0  0  0  0  0  0  0  0  0  0  0  0
  -35.2460    5.1676  -42.0869 C   0  0  0  0  0  0  0  0  0  0  0  0
  -36.6792    5.2476  -42.6202 C   0  0  0  0  0  0  0  0  0  0  0  0
  -36.9723    4.0087  -43.4694 C   0  0  0  0  0  0  0  0  0  0  0  0
  -36.0191    3.9414  -44.5846 N   0  0  0  0  0  0  0  0  0  0  0  0
  -34.6395    3.8164  -44.0970 C   0  0  0  0  0  0  0  0  0  0  0  0
  -34.2772    5.0495  -43.2665 C   0  0  0  0  0  0  0  0  0  0  0  0
  -34.3734    6.2191  -44.0819 O   0  0  0  0  0  0  0  0  0  0  0  0
  -36.4111    2.6621  -45.6494 X   0  0  0  0  0  0  0  0  0  0  0  0
  1  2  1  0  0  0  0
  2  3  1  0  0  0  0
  2  7  1  0  0  0  0
  3  4  1  0  0  0  0
  4  5  1  0  0  0  0
  5  6  1  0  0  0  0
  5  9  1  0  0  0  0
  6  7  1  0  0  0  0
  7  8  1  0  0  0  0
M  END
> <Index>
14881

> <PropertyFieldDistance>
nan

$$$$
8761162
BBcorina  12272117083D 1   1.00000     0.00000 
CORINA 4.3.0 0026  30.10.2019
 13 14  0  0  0  0  0  0  0  0999 V2000
  -36.2962    2.4482  -45.0304 C   0  0  0  0  0  0  0  0  0  0  0  0
  -35.9789    3.3065  -43.8811 N   0  0  0  0  0  0  0  0  0  0  0  0
  -37.0145    4.3226  -43.6833 C   0  0  0  0  0  0  0  0  0  0  0  0
  -36.6165    5.2034  -42.4923 C   0  0  0  0  0  0  0  0  0  0  0  0
  -35.3864    6.0180  -42.8992 C   0  0  0  0  0  0  0  0  0  0  0  0
  -34.7959    6.6406  -41.7069 N   0  0  0  0  0  0  0  0  0  0  0  0
  -34.3701    5.1119  -43.5478 C   0  0  0  0  0  0  0  0  0  0  0  0
  -33.0736    5.5802  -43.6892 C   0  0  0  0  0  0  0  0  0  0  0  0
  -32.1053    4.7936  -44.2814 C   0  0  0  0  0  0  0  0  0  0  0  0
  -32.4290    3.5291  -44.7377 C   0  0  0  0  0  0  0  0  0  0  0  0
  -33.7160    3.0555  -44.5980 C   0  0  0  0  0  0  0  0  0  0  0  0
  -34.6984    3.8450  -43.9983 C   0  0  0  0  0  0  0  0  0  0  0  0
  -34.3181    5.4561  -40.5700 X   0  0  0  0  0  0  0  0  0  0  0  0
  1  2  1  0  0  0  0
  2  3  1  0  0  0  0
  2 12  1  0  0  0  0
  3  4  1  0  0  0  0
  4  5  1  0  0  0  0
  5  6  1  0  0  0  0
  5  7  1  0  0  0  0
  6 13  1  0  0  0  0
  7  8  2  0  0  0  0
  7 12  1  0  0  0  0
  8  9  1  0  0  0  0
  9 10  2  0  0  0  0
 10 11  1  0  0  0  0
 11 12  2  0  0  0  0
M  END
> <Index>
14891

> <PropertyFieldDistance>
nan

$$$$
7558006
BBcorina  12272117083D 1   1.00000     0.00000 
CORINA 4.3.0 0026  30.10.2019
 11 11  0  0  0  0  0  0  0  0999 V2000
  -40.6877    2.5124  -46.3699 C   0  0  0  0  0  0  0  0  0  0  0  0
  -40.1496    2.7602  -45.0442 O   0  0  0  0  0  0  0  0  0  0  0  0
  -38.9850    3.4239  -44.9735 C   0  0  0  0  0  0  0  0  0  0  0  0
  -38.4334    3.7857  -45.9858 O   0  0  0  0  0  0  0  0  0  0  0  0
  -38.3655    3.7175  -43.6315 C   0  0  0  0  0  0  0  0  0  0  0  0
  -37.0530    4.4782  -43.8312 C   0  0  0  0  0  0  0  0  0  0  0  0
  -36.4385    4.8666  -42.4634 C   0  0  0  0  0  0  0  0  0  0  0  0
  -34.9374    5.0165  -42.8253 C   0  0  0  0  0  0  0  0  0  0  0  0
  -34.7234    3.9144  -43.8840 C   0  0  0  0  0  0  0  0  0  0  0  0
  -36.0427    3.6040  -44.4644 N   0  0  0  0  0  0  0  0  0  0  0  0
  -36.0299    3.8118  -46.1617 X   0  0  0  0  0  0  0  0  0  0  0  0
  1  2  1  0  0  0  0
  2  3  1  0  0  0  0
  3  4  2  0  0  0  0
  3  5  1  0  0  0  0
  5  6  1  0  0  0  0
  6  7  1  0  0  0  0
  6 10  1  0  0  0  0
  7  8  1  0  0  0  0
  8  9  1  0  0  0  0
  9 10  1  0  0  0  0
 10 11  1  0  0  0  0
M  END
> <Index>
14901

> <PropertyFieldDistance>
nan

$$$$
9438512
BBcorina  12272117083D 1   1.00000     0.00000 
CORINA 4.3.0 0026  30.10.2019
 12 12  0  0  0  0  0  0  0  0999 V2000
  -35.9521    1.5149  -47.1734 C   0  0  0  0  0  0  0  0  0  0  0  0
  -35.4565    2.2504  -46.0237 O   0  0  0  0  0  0  0  0  0  0  0  0
  -36.3725    2.7073  -45.1492 C   0  0  0  0  0  0  0  0  0  0  0  0
  -37.5538    2.4972  -45.3413 O   0  0  0  0  0  0  0  0  0  0  0  0
  -35.9792    3.3978  -44.0605 N   0  0  0  0  0  0  0  0  0  0  0  0
  -36.9669    3.9027  -43.0971 C   0  0  0  0  0  0  0  0  0  0  0  0
  -36.7440    5.4055  -42.8997 C   0  0  0  0  0  0  0  0  0  0  0  0
  -35.2875    5.6524  -42.4989 C   0  0  0  0  0  0  0  0  0  0  0  0
  -34.3575    5.1651  -43.6123 C   0  0  0  0  0  0  0  0  0  0  0  0
  -34.5545    3.6594  -43.8143 C   0  0  0  0  0  0  0  0  0  0  0  0
  -35.0775    7.0897  -42.2799 N   0  0  0  0  0  0  0  0  0  0  0  0
  -35.5134    7.9909  -43.6663 X   0  0  0  0  0  0  0  0  0  0  0  0
  1  2  1  0  0  0  0
  2  3  1  0  0  0  0
  3  4  2  0  0  0  0
  3  5  1  0  0  0  0
  5  6  1  0  0  0  0
  5 10  1  0  0  0  0
  6  7  1  0  0  0  0
  7  8  1  0  0  0  0
  8  9  1  0  0  0  0
  8 11  1  0  0  0  0
  9 10  1  0  0  0  0
 11 12  1  0  0  0  0
M  END
> <Index>
14905

> <PropertyFieldDistance>
nan

$$$$
5637344
BBcorina  12272117083D 1   1.00000     0.00000 
CORINA 4.3.0 0026  30.10.2019
 16 17  0  0  0  0  0  0  0  0999 V2000
  -35.6776    0.7624  -42.9078 Cl  0  0  0  0  0  0  0  0  0  0  0  0
  -36.2152    1.0862  -44.5263 C   0  0  0  0  0  0  0  0  0  0  0  0
  -36.5417    0.0408  -45.3691 C   0  0  0  0  0  0  0  0  0  0  0  0
  -36.9696    0.2985  -46.6588 C   0  0  0  0  0  0  0  0  0  0  0  0
  -37.0720    1.6016  -47.1091 C   0  0  0  0  0  0  0  0  0  0  0  0
  -36.7526    2.6516  -46.2699 C   0  0  0  0  0  0  0  0  0  0  0  0
  -36.3173    2.3972  -44.9766 C   0  0  0  0  0  0  0  0  0  0  0  0
  -35.9873    3.4587  -44.1260 N   0  0  0  0  0  0  0  0  0  0  0  0
  -37.0447    4.0240  -43.2972 C   0  0  0  0  0  0  0  0  0  0  0  0
  -36.6544    5.4199  -42.8099 C   0  0  0  0  0  0  0  0  0  0  0  0
  -35.2546    5.3491  -42.1877 C   0  0  0  0  0  0  0  0  0  0  0  0
  -34.2458    5.0487  -43.2990 C   0  0  0  0  0  0  0  0  0  0  0  0
  -32.9455    4.7171  -42.7012 N   0  0  0  0  0  0  0  0  0  0  0  0
  -34.7252    3.8893  -44.1243 C   0  0  0  0  0  0  0  0  0  0  0  0
  -33.9216    3.3141  -44.8276 O   0  0  0  0  0  0  0  0  0  0  0  0
  -33.0450    3.2840  -41.7737 X   0  0  0  0  0  0  0  0  0  0  0  0
  1  2  1  0  0  0  0
  2  3  2  0  0  0  0
  2  7  1  0  0  0  0
  3  4  1  0  0  0  0
  4  5  2  0  0  0  0
  5  6  1  0  0  0  0
  6  7  2  0  0  0  0
  7  8  1  0  0  0  0
  8  9  1  0  0  0  0
  8 14  1  0  0  0  0
  9 10  1  0  0  0  0
 10 11  1  0  0  0  0
 11 12  1  0  0  0  0
 12 13  1  0  0  0  0
 12 14  1  0  0  0  0
 13 16  1  0  0  0  0
 14 15  2  0  0  0  0
M  END
> <Index>
14924

> <PropertyFieldDistance>
nan

$$$$
11982976
BBcorina  12272117083D 1   1.00000     0.00000 
CORINA 4.3.0 0026  30.10.2019
  6  6  0  0  0  0  0  0  0  0999 V2000
  -36.0036    3.7143  -44.2317 N   0  0  0  0  0  0  0  0  0  0  0  0
  -37.1751    4.5284  -43.8554 C   0  0  0  0  0  0  0  0  0  0  0  0
  -36.4851    4.7991  -42.5364 C   0  0  0  0  0  0  0  0  0  0  0  0
  -36.4948    5.7283  -41.6132 C   0  0  0  0  0  0  0  0  0  0  0  0
  -35.7782    3.4860  -42.7917 C   0  0  0  0  0  0  0  0  0  0  0  0
  -36.4852    2.2715  -45.0129 X   0  0  0  0  0  0  0  0  0  0  0  0
  1  2  1  0  0  0  0
  1  5  1  0  0  0  0
  1  6  1  0  0  0  0
  2  3  1  0  0  0  0
  3  4  2  0  0  0  0
  3  5  1  0  0  0  0
M  END
> <Index>
14932

> <PropertyFieldDistance>
nan

$$$$
8795564
BBcorina  12272117083D 1   1.00000     0.00000 
CORINA 4.3.0 0026  30.10.2019
 10 10  0  0  0  0  0  0  0  0999 V2000
  -36.3258    2.4444  -45.0971 C   0  0  0  0  0  0  0  0  0  0  0  0
  -36.0592    3.1990  -43.8653 N   0  0  0  0  0  0  0  0  0  0  0  0
  -37.0921    4.2439  -43.6472 C   0  0  0  0  0  0  0  0  0  0  0  0
  -36.3980    5.2312  -42.6756 C   0  0  0  0  0  0  0  0  0  0  0  0
  -34.9353    5.2379  -43.1762 C   0  0  0  0  0  0  0  0  0  0  0  0
  -34.7098    6.3538  -44.0401 O   0  0  0  0  0  0  0  0  0  0  0  0
  -33.9686    5.2811  -41.9911 C   0  0  0  0  0  0  0  0  0  0  0  0
  -32.5862    5.2185  -42.4842 N   0  0  0  0  0  0  0  0  0  0  0  0
  -34.7700    3.9187  -43.9531 C   0  0  0  0  0  0  0  0  0  0  0  0
  -31.4708    5.2641  -41.1889 X   0  0  0  0  0  0  0  0  0  0  0  0
  1  2  1  0  0  0  0
  2  3  1  0  0  0  0
  2  9  1  0  0  0  0
  3  4  1  0  0  0  0
  4  5  1  0  0  0  0
  5  6  1  0  0  0  0
  5  7  1  0  0  0  0
  5  9  1  0  0  0  0
  7  8  1  0  0  0  0
  8 10  1  0  0  0  0
M  END
> <Index>
14938

> <PropertyFieldDistance>
nan

$$$$
9141898
BBcorina  12272117083D 1   1.00000     0.00000 
CORINA 4.3.0 0026  30.10.2019
 11 11  0  0  0  0  0  0  0  0999 V2000
  -36.3506    0.2480  -45.7559 N   0  0  0  0  0  0  0  0  0  0  0  0
  -35.8039    1.6083  -45.6624 C   0  0  0  0  0  0  0  0  0  0  0  0
  -36.6147    2.4151  -44.6463 C   0  0  0  0  0  0  0  0  0  0  0  0
  -36.0680    3.7754  -44.5528 N   0  0  0  0  0  0  0  0  0  0  0  0
  -36.9627    4.6538  -43.7658 C   0  0  0  0  0  0  0  0  0  0  0  0
  -36.7405    4.5452  -42.2764 C   0  0  0  0  0  0  0  0  0  0  0  0
  -35.7129    5.6158  -41.8391 C   0  0  0  0  0  0  0  0  0  0  0  0
  -34.4534    5.2722  -42.2418 O   0  0  0  0  0  0  0  0  0  0  0  0
  -34.2152    5.1323  -43.6494 C   0  0  0  0  0  0  0  0  0  0  0  0
  -34.6805    3.7539  -44.0558 C   0  0  0  0  0  0  0  0  0  0  0  0
  -35.4711   -0.6897  -46.8835 X   0  0  0  0  0  0  0  0  0  0  0  0
  1  2  1  0  0  0  0
  1 11  1  0  0  0  0
  2  3  1  0  0  0  0
  3  4  1  0  0  0  0
  4  5  1  0  0  0  0
  4 10  1  0  0  0  0
  5  6  1  0  0  0  0
  6  7  1  0  0  0  0
  7  8  1  0  0  0  0
  8  9  1  0  0  0  0
  9 10  1  0  0  0  0
M  END
> <Index>
14939

> <PropertyFieldDistance>
nan

$$$$
7968498
BBcorina  12272117083D 1   1.00000     0.00000 
CORINA 4.3.0 0026  30.10.2019
  9  9  0  0  0  0  0  0  0  0999 V2000
  -32.8468    4.9092  -42.7413 C   0  0  0  0  0  0  0  0  0  0  0  0
  -34.2769    5.0496  -43.2664 C   0  0  0  0  0  0  0  0  0  0  0  0
  -34.3733    6.2193  -44.0817 O   0  0  0  0  0  0  0  0  0  0  0  0
  -35.2462    5.1675  -42.0868 C   0  0  0  0  0  0  0  0  0  0  0  0
  -36.6793    5.2476  -42.6203 C   0  0  0  0  0  0  0  0  0  0  0  0
  -36.9723    4.0086  -43.4694 C   0  0  0  0  0  0  0  0  0  0  0  0
  -36.0191    3.9414  -44.5845 N   0  0  0  0  0  0  0  0  0  0  0  0
  -34.6396    3.8164  -44.0971 C   0  0  0  0  0  0  0  0  0  0  0  0
  -36.4111    2.6624  -45.6495 X   0  0  0  0  0  0  0  0  0  0  0  0
  1  2  1  0  0  0  0
  2  3  1  0  0  0  0
  2  4  1  0  0  0  0
  2  8  1  0  0  0  0
  4  5  1  0  0  0  0
  5  6  1  0  0  0  0
  6  7  1  0  0  0  0
  7  8  1  0  0  0  0
  7  9  1  0  0  0  0
M  END
> <Index>
14961

> <PropertyFieldDistance>
nan

$$$$
16512488
BBcorina  12272117083D 1   1.00000     0.00000 
CORINA 4.3.0 0026  30.10.2019
 13 13  0  0  0  0  0  0  0  0999 V2000
  -36.1036   -1.7728  -47.0689 C   0  0  0  0  0  0  0  0  0  0  0  0
  -35.3303   -0.5114  -46.6795 C   0  0  0  0  0  0  0  0  0  0  0  0
  -36.1963    0.3793  -45.9732 O   0  0  0  0  0  0  0  0  0  0  0  0
  -35.5689    1.5955  -45.5615 C   0  0  0  0  0  0  0  0  0  0  0  0
  -36.5687    2.4540  -44.8304 C   0  0  0  0  0  0  0  0  0  0  0  0
  -37.7063    2.0628  -44.6770 O   0  0  0  0  0  0  0  0  0  0  0  0
  -36.1984    3.6563  -44.3471 N   0  0  0  0  0  0  0  0  0  0  0  0
  -37.1582    4.5099  -43.6306 C   0  0  0  0  0  0  0  0  0  0  0  0
  -36.5301    4.9380  -42.3000 C   0  0  0  0  0  0  0  0  0  0  0  0
  -35.2213    5.5539  -42.5557 N   0  0  0  0  0  0  0  0  0  0  0  0
  -34.2878    4.5919  -43.1565 C   0  0  0  0  0  0  0  0  0  0  0  0
  -34.8224    4.1471  -44.5170 C   0  0  0  0  0  0  0  0  0  0  0  0
  -34.5707    6.2272  -41.1247 X   0  0  0  0  0  0  0  0  0  0  0  0
  1  2  1  0  0  0  0
  2  3  1  0  0  0  0
  3  4  1  0  0  0  0
  4  5  1  0  0  0  0
  5  6  2  0  0  0  0
  5  7  1  0  0  0  0
  7  8  1  0  0  0  0
  7 12  1  0  0  0  0
  8  9  1  0  0  0  0
  9 10  1  0  0  0  0
 10 11  1  0  0  0  0
 10 13  1  0  0  0  0
 11 12  1  0  0  0  0
M  END
> <Index>
14965

> <PropertyFieldDistance>
nan

$$$$
6407530
BBcorina  12272117083D 1   1.00000     0.00000 
CORINA 4.3.0 0026  30.10.2019
 12 12  0  0  0  0  0  0  0  0999 V2000
  -36.8072    9.3509  -39.5545 C   0  0  0  0  0  0  0  0  0  0  0  0
  -35.8144    8.3335  -39.9088 N   0  0  0  0  0  0  0  0  0  0  0  0
  -35.9673    7.6054  -41.0327 C   0  0  0  0  0  0  0  0  0  0  0  0
  -36.9267    7.7924  -41.7505 O   0  0  0  0  0  0  0  0  0  0  0  0
  -34.9460    6.5589  -41.3971 C   0  0  0  0  0  0  0  0  0  0  0  0
  -35.3535    5.8833  -42.7079 C   0  0  0  0  0  0  0  0  0  0  0  0
  -36.6585    5.1099  -42.5008 C   0  0  0  0  0  0  0  0  0  0  0  0
  -37.0291    4.3869  -43.7977 C   0  0  0  0  0  0  0  0  0  0  0  0
  -35.9480    3.4664  -44.1723 N   0  0  0  0  0  0  0  0  0  0  0  0
  -34.6958    4.1916  -44.4226 C   0  0  0  0  0  0  0  0  0  0  0  0
  -34.2559    4.9088  -43.1442 C   0  0  0  0  0  0  0  0  0  0  0  0
  -36.3899    2.5211  -45.5270 X   0  0  0  0  0  0  0  0  0  0  0  0
  1  2  1  0  0  0  0
  2  3  1  0  0  0  0
  3  4  2  0  0  0  0
  3  5  1  0  0  0  0
  5  6  1  0  0  0  0
  6  7  1  0  0  0  0
  6 11  1  0  0  0  0
  7  8  1  0  0  0  0
  8  9  1  0  0  0  0
  9 10  1  0  0  0  0
  9 12  1  0  0  0  0
 10 11  1  0  0  0  0
M  END
> <Index>
14966

> <PropertyFieldDistance>
nan

$$$$
11946812
BBcorina  12272117083D 1   1.00000     0.00000 
CORINA 4.3.0 0026  30.10.2019
 12 12  0  0  0  0  0  0  0  0999 V2000
  -36.3190    1.5126  -44.8033 C   0  0  0  0  0  0  0  0  0  0  0  0
  -36.1826    2.8064  -45.6084 C   0  0  0  0  0  0  0  0  0  0  0  0
  -37.4667    3.0497  -46.4041 C   0  0  0  0  0  0  0  0  0  0  0  0
  -35.0007    2.6850  -46.5724 C   0  0  0  0  0  0  0  0  0  0  0  0
  -35.9536    3.9316  -44.6922 N   0  0  0  0  0  0  0  0  0  0  0  0
  -37.0979    4.1073  -43.7726 C   0  0  0  0  0  0  0  0  0  0  0  0
  -36.4680    4.6054  -42.4479 C   0  0  0  0  0  0  0  0  0  0  0  0
  -35.1467    3.7934  -42.4045 C   0  0  0  0  0  0  0  0  0  0  0  0
  -34.0857    4.5302  -41.5847 C   0  0  0  0  0  0  0  0  0  0  0  0
  -34.4449    4.4804  -40.1612 N   0  0  0  0  0  0  0  0  0  0  0  0
  -34.7348    3.7201  -43.8899 C   0  0  0  0  0  0  0  0  0  0  0  0
  -33.2825    5.2942  -39.2069 X   0  0  0  0  0  0  0  0  0  0  0  0
  1  2  1  0  0  0  0
  2  3  1  0  0  0  0
  2  4  1  0  0  0  0
  2  5  1  0  0  0  0
  5  6  1  0  0  0  0
  5 11  1  0  0  0  0
  6  7  1  0  0  0  0
  7  8  1  0  0  0  0
  8  9  1  0  0  0  0
  8 11  1  0  0  0  0
  9 10  1  0  0  0  0
 10 12  1  0  0  0  0
M  END
> <Index>
14967

> <PropertyFieldDistance>
nan

$$$$
7283258
BBcorina  12272117083D 1   1.00000     0.00000 
CORINA 4.3.0 0026  30.10.2019
 11 12  0  0  0  0  0  0  0  0999 V2000
  -35.9563    3.4604  -44.1938 N   0  0  0  0  0  0  0  0  0  0  0  0
  -37.0217    4.3924  -43.7966 C   0  0  0  0  0  0  0  0  0  0  0  0
  -36.6110    5.1140  -42.5105 C   0  0  0  0  0  0  0  0  0  0  0  0
  -35.3654    5.7852  -42.7239 O   0  0  0  0  0  0  0  0  0  0  0  0
  -34.3076    4.9181  -43.1281 C   0  0  0  0  0  0  0  0  0  0  0  0
  -33.9994    3.9088  -42.0122 C   0  0  0  0  0  0  0  0  0  0  0  0
  -32.5294    4.1417  -41.6033 C   0  0  0  0  0  0  0  0  0  0  0  0
  -32.2460    5.6061  -42.0268 C   0  0  0  0  0  0  0  0  0  0  0  0
  -33.0228    5.7338  -43.3615 C   0  0  0  0  0  0  0  0  0  0  0  0
  -34.6908    4.1787  -44.4086 C   0  0  0  0  0  0  0  0  0  0  0  0
  -36.4035    2.5766  -45.5877 X   0  0  0  0  0  0  0  0  0  0  0  0
  1  2  1  0  0  0  0
  1 10  1  0  0  0  0
  1 11  1  0  0  0  0
  2  3  1  0  0  0  0
  3  4  1  0  0  0  0
  4  5  1  0  0  0  0
  5  6  1  0  0  0  0
  5  9  1  0  0  0  0
  5 10  1  0  0  0  0
  6  7  1  0  0  0  0
  7  8  1  0  0  0  0
  8  9  1  0  0  0  0
M  END
> <Index>
14970

> <PropertyFieldDistance>
nan

$$$$
13601940
BBcorina  12272117083D 1   1.00000     0.00000 
CORINA 4.3.0 0026  30.10.2019
 11 11  0  0  0  0  0  0  0  0999 V2000
  -37.0217    2.0287  -45.7868 C   0  0  0  0  0  0  0  0  0  0  0  0
  -35.7800    2.1785  -44.9055 C   0  0  0  0  0  0  0  0  0  0  0  0
  -35.7124    3.5501  -44.3837 N   0  0  0  0  0  0  0  0  0  0  0  0
  -36.8256    3.8184  -43.4625 C   0  0  0  0  0  0  0  0  0  0  0  0
  -36.7646    5.2775  -43.0043 C   0  0  0  0  0  0  0  0  0  0  0  0
  -35.4722    5.5298  -42.3518 N   0  0  0  0  0  0  0  0  0  0  0  0
  -34.3592    5.2614  -43.2730 C   0  0  0  0  0  0  0  0  0  0  0  0
  -34.4201    3.8023  -43.7312 C   0  0  0  0  0  0  0  0  0  0  0  0
  -34.2715    2.8801  -42.5194 C   0  0  0  0  0  0  0  0  0  0  0  0
  -33.2864    3.5302  -44.7218 C   0  0  0  0  0  0  0  0  0  0  0  0
  -35.3937    7.1263  -41.7445 X   0  0  0  0  0  0  0  0  0  0  0  0
  1  2  1  0  0  0  0
  2  3  1  0  0  0  0
  3  4  1  0  0  0  0
  3  8  1  0  0  0  0
  4  5  1  0  0  0  0
  5  6  1  0  0  0  0
  6  7  1  0  0  0  0
  6 11  1  0  0  0  0
  7  8  1  0  0  0  0
  8  9  1  0  0  0  0
  8 10  1  0  0  0  0
M  END
> <Index>
14972

> <PropertyFieldDistance>
nan

$$$$
12122804
BBcorina  12272117083D 1   1.00000     0.00000 
CORINA 4.3.0 0026  30.10.2019
 13 14  0  0  0  0  0  0  0  0999 V2000
  -34.0009    7.9430  -42.9028 N   0  0  0  0  0  0  0  0  0  0  0  0
  -35.1444    7.1821  -42.3817 C   0  0  0  0  0  0  0  0  0  0  0  0
  -35.4705    6.0330  -43.3378 C   0  0  0  0  0  0  0  0  0  0  0  0
  -36.7370    5.3155  -42.8623 C   0  0  0  0  0  0  0  0  0  0  0  0
  -37.0238    4.1304  -43.7871 C   0  0  0  0  0  0  0  0  0  0  0  0
  -35.8814    3.2077  -43.7710 N   0  0  0  0  0  0  0  0  0  0  0  0
  -36.1770    1.9907  -44.5388 C   0  0  0  0  0  0  0  0  0  0  0  0
  -36.2955    2.3404  -46.0235 C   0  0  0  0  0  0  0  0  0  0  0  0
  -36.7211    1.2249  -46.9803 C   0  0  0  0  0  0  0  0  0  0  0  0
  -35.2739    1.7214  -46.9794 C   0  0  0  0  0  0  0  0  0  0  0  0
  -34.6640    3.8611  -44.2684 C   0  0  0  0  0  0  0  0  0  0  0  0
  -34.3068    5.0381  -43.3580 C   0  0  0  0  0  0  0  0  0  0  0  0
  -33.6023    9.2398  -41.8618 X   0  0  0  0  0  0  0  0  0  0  0  0
  1  2  1  0  0  0  0
  1 13  1  0  0  0  0
  2  3  1  0  0  0  0
  3  4  1  0  0  0  0
  3 12  1  0  0  0  0
  4  5  1  0  0  0  0
  5  6  1  0  0  0  0
  6  7  1  0  0  0  0
  6 11  1  0  0  0  0
  7  8  1  0  0  0  0
  8  9  1  0  0  0  0
  8 10  1  0  0  0  0
  9 10  1  0  0  0  0
 11 12  1  0  0  0  0
M  END
> <Index>
14973

> <PropertyFieldDistance>
nan

$$$$
6484884
BBcorina  12272117083D 1   1.00000     0.00000 
CORINA 4.3.0 0026  30.10.2019
 13 14  0  0  0  0  0  0  0  0999 V2000
  -36.0087    3.6126  -44.3879 N   0  0  0  0  0  0  0  0  0  0  0  0
  -37.0096    4.4890  -43.7634 C   0  0  0  0  0  0  0  0  0  0  0  0
  -36.5702    4.8249  -42.3364 C   0  0  0  0  0  0  0  0  0  0  0  0
  -35.2534    5.4763  -42.3725 N   0  0  0  0  0  0  0  0  0  0  0  0
  -34.2524    4.6000  -42.9970 C   0  0  0  0  0  0  0  0  0  0  0  0
  -34.6919    4.2640  -44.4241 C   0  0  0  0  0  0  0  0  0  0  0  0
  -34.8300    5.8830  -41.0259 C   0  0  0  0  0  0  0  0  0  0  0  0
  -33.4072    6.4472  -41.0846 C   0  0  0  0  0  0  0  0  0  0  0  0
  -33.0044    6.9405  -39.6925 C   0  0  0  0  0  0  0  0  0  0  0  0
  -33.9418    7.9228  -39.2470 O   0  0  0  0  0  0  0  0  0  0  0  0
  -35.2812    7.4391  -39.1273 C   0  0  0  0  0  0  0  0  0  0  0  0
  -35.7767    6.9642  -40.4959 C   0  0  0  0  0  0  0  0  0  0  0  0
  -36.5014    3.1392  -45.9554 X   0  0  0  0  0  0  0  0  0  0  0  0
  1  2  1  0  0  0  0
  1  6  1  0  0  0  0
  1 13  1  0  0  0  0
  2  3  1  0  0  0  0
  3  4  1  0  0  0  0
  4  5  1  0  0  0  0
  4  7  1  0  0  0  0
  5  6  1  0  0  0  0
  7  8  1  0  0  0  0
  7 12  1  0  0  0  0
  8  9  1  0  0  0  0
  9 10  1  0  0  0  0
 10 11  1  0  0  0  0
 11 12  1  0  0  0  0
M  END
> <Index>
14980

> <PropertyFieldDistance>
nan

$$$$
7663538
BBcorina  12272117083D 1   1.00000     0.00000 
CORINA 4.3.0 0026  30.10.2019
 10 11  0  0  0  0  0  0  0  0999 V2000
  -35.9573    3.4737  -44.1609 N   0  0  0  0  0  0  0  0  0  0  0  0
  -36.9678    4.4893  -43.8343 C   0  0  0  0  0  0  0  0  0  0  0  0
  -36.7096    5.0397  -42.4246 C   0  0  0  0  0  0  0  0  0  0  0  0
  -35.2493    5.4083  -42.3332 C   0  0  0  0  0  0  0  0  0  0  0  0
  -34.6103    6.2056  -41.3905 C   0  0  0  0  0  0  0  0  0  0  0  0
  -33.3368    6.2588  -41.7001 N   0  0  0  0  0  0  0  0  0  0  0  0
  -33.1322    5.4904  -42.8568 N   0  0  0  0  0  0  0  0  0  0  0  0
  -34.3163    4.9788  -43.2242 C   0  0  0  0  0  0  0  0  0  0  0  0
  -34.6363    4.0822  -44.3936 C   0  0  0  0  0  0  0  0  0  0  0  0
  -36.4445    2.5342  -45.5040 X   0  0  0  0  0  0  0  0  0  0  0  0
  1  2  1  0  0  0  0
  1  9  1  0  0  0  0
  1 10  1  0  0  0  0
  2  3  1  0  0  0  0
  3  4  1  0  0  0  0
  4  5  1  0  0  0  0
  4  8  2  0  0  0  0
  5  6  2  0  0  0  0
  6  7  1  0  0  0  0
  7  8  1  0  0  0  0
  8  9  1  0  0  0  0
M  END
> <Index>
14990

> <PropertyFieldDistance>
nan

$$$$
10910068
BBcorina  12272117083D 1   1.00000     0.00000 
CORINA 4.3.0 0026  30.10.2019
 11 11  0  0  0  0  0  0  0  0999 V2000
  -36.3495    2.3570  -44.9464 C   0  0  0  0  0  0  0  0  0  0  0  0
  -36.0373    3.6631  -44.3508 N   0  0  0  0  0  0  0  0  0  0  0  0
  -36.9514    3.9682  -43.2428 C   0  0  0  0  0  0  0  0  0  0  0  0
  -36.6923    5.3915  -42.7433 C   0  0  0  0  0  0  0  0  0  0  0  0
  -35.2385    5.5066  -42.2768 C   0  0  0  0  0  0  0  0  0  0  0  0
  -34.3080    5.1368  -43.4351 C   0  0  0  0  0  0  0  0  0  0  0  0
  -32.8546    5.1913  -42.9604 C   0  0  0  0  0  0  0  0  0  0  0  0
  -31.9208    4.9441  -44.1469 C   0  0  0  0  0  0  0  0  0  0  0  0
  -30.5253    4.9964  -43.6911 N   0  0  0  0  0  0  0  0  0  0  0  0
  -34.6362    3.7211  -43.9147 C   0  0  0  0  0  0  0  0  0  0  0  0
  -29.4461    4.7247  -44.9892 X   0  0  0  0  0  0  0  0  0  0  0  0
  1  2  1  0  0  0  0
  2  3  1  0  0  0  0
  2 10  1  0  0  0  0
  3  4  1  0  0  0  0
  4  5  1  0  0  0  0
  5  6  1  0  0  0  0
  6  7  1  0  0  0  0
  6 10  1  0  0  0  0
  7  8  1  0  0  0  0
  8  9  1  0  0  0  0
  9 11  1  0  0  0  0
M  END
> <Index>
14991

> <PropertyFieldDistance>
nan

$$$$
14783912
BBcorina  12272117083D 1   1.00000     0.00000 
CORINA 4.3.0 0026  30.10.2019
 14 14  0  0  0  0  0  0  0  0999 V2000
  -38.2150    0.5989  -47.3757 C   0  0  0  0  0  0  0  0  0  0  0  0
  -36.8717    1.1851  -46.9367 C   0  0  0  0  0  0  0  0  0  0  0  0
  -36.2980    2.0460  -48.0639 C   0  0  0  0  0  0  0  0  0  0  0  0
  -37.0749    2.0476  -45.6893 C   0  0  0  0  0  0  0  0  0  0  0  0
  -35.7373    2.5249  -45.1853 C   0  0  0  0  0  0  0  0  0  0  0  0
  -34.7215    2.2066  -45.7664 O   0  0  0  0  0  0  0  0  0  0  0  0
  -35.6699    3.3055  -44.0886 N   0  0  0  0  0  0  0  0  0  0  0  0
  -36.8917    3.6989  -43.3736 C   0  0  0  0  0  0  0  0  0  0  0  0
  -36.9144    5.2248  -43.2390 C   0  0  0  0  0  0  0  0  0  0  0  0
  -35.6182    5.6936  -42.5739 C   0  0  0  0  0  0  0  0  0  0  0  0
  -34.4241    5.3035  -43.4481 C   0  0  0  0  0  0  0  0  0  0  0  0
  -34.3732    3.7786  -43.5851 C   0  0  0  0  0  0  0  0  0  0  0  0
  -33.1830    5.7816  -42.8245 N   0  0  0  0  0  0  0  0  0  0  0  0
  -32.7944    7.3575  -43.3624 X   0  0  0  0  0  0  0  0  0  0  0  0
  1  2  1  0  0  0  0
  2  3  1  0  0  0  0
  2  4  1  0  0  0  0
  4  5  1  0  0  0  0
  5  6  2  0  0  0  0
  5  7  1  0  0  0  0
  7  8  1  0  0  0  0
  7 12  1  0  0  0  0
  8  9  1  0  0  0  0
  9 10  1  0  0  0  0
 10 11  1  0  0  0  0
 11 12  1  0  0  0  0
 11 13  1  0  0  0  0
 13 14  1  0  0  0  0
M  END
> <Index>
14992

> <PropertyFieldDistance>
nan

$$$$
10126612
BBcorina  12272117083D 1   1.00000     0.00000 
CORINA 4.3.0 0026  30.10.2019
 13 13  0  0  0  0  0  0  0  0999 V2000
  -39.2261   -2.2799  -47.2956 C   0  0  0  0  0  0  0  0  0  0  0  0
  -38.1778   -1.1829  -47.4926 C   0  0  0  0  0  0  0  0  0  0  0  0
  -38.0560   -0.3577  -46.2101 C   0  0  0  0  0  0  0  0  0  0  0  0
  -37.0495    0.6955  -46.3992 N   0  0  0  0  0  0  0  0  0  0  0  0
  -36.9052    1.5099  -45.1852 C   0  0  0  0  0  0  0  0  0  0  0  0
  -35.8508    2.5933  -45.4202 C   0  0  0  0  0  0  0  0  0  0  0  0
  -35.7064    3.4078  -44.2062 N   0  0  0  0  0  0  0  0  0  0  0  0
  -36.9352    4.1628  -43.9298 C   0  0  0  0  0  0  0  0  0  0  0  0
  -36.8018    4.8830  -42.5862 C   0  0  0  0  0  0  0  0  0  0  0  0
  -35.5994    5.8298  -42.6374 C   0  0  0  0  0  0  0  0  0  0  0  0
  -34.3407    5.0258  -42.9745 C   0  0  0  0  0  0  0  0  0  0  0  0
  -34.5455    4.3014  -44.3069 C   0  0  0  0  0  0  0  0  0  0  0  0
  -37.4305    1.6718  -47.7504 X   0  0  0  0  0  0  0  0  0  0  0  0
  1  2  1  0  0  0  0
  2  3  1  0  0  0  0
  3  4  1  0  0  0  0
  4  5  1  0  0  0  0
  4 13  1  0  0  0  0
  5  6  1  0  0  0  0
  6  7  1  0  0  0  0
  7  8  1  0  0  0  0
  7 12  1  0  0  0  0
  8  9  1  0  0  0  0
  9 10  1  0  0  0  0
 10 11  1  0  0  0  0
 11 12  1  0  0  0  0
M  END
> <Index>
14998

> <PropertyFieldDistance>
nan

$$$$
10268338
BBcorina  12272117083D 1   1.00000     0.00000 
CORINA 4.3.0 0026  30.10.2019
 15 15  0  0  0  0  0  0  0  0999 V2000
  -34.6215   -1.2053  -49.6513 C   0  0  0  0  0  0  0  0  0  0  0  0
  -35.6905   -0.3451  -48.9743 C   0  0  0  0  0  0  0  0  0  0  0  0
  -35.0992    0.3160  -47.7278 C   0  0  0  0  0  0  0  0  0  0  0  0
  -36.1255    1.1419  -47.0779 N   0  0  0  0  0  0  0  0  0  0  0  0
  -35.5923    1.7939  -45.8744 C   0  0  0  0  0  0  0  0  0  0  0  0
  -36.6878    2.6432  -45.2267 C   0  0  0  0  0  0  0  0  0  0  0  0
  -36.1546    3.2953  -44.0231 N   0  0  0  0  0  0  0  0  0  0  0  0
  -37.0955    4.2995  -43.5075 C   0  0  0  0  0  0  0  0  0  0  0  0
  -36.5403    4.8975  -42.2126 C   0  0  0  0  0  0  0  0  0  0  0  0
  -35.2259    5.4988  -42.4779 N   0  0  0  0  0  0  0  0  0  0  0  0
  -34.6927    6.1508  -41.2744 C   0  0  0  0  0  0  0  0  0  0  0  0
  -33.2331    6.5435  -41.5113 C   0  0  0  0  0  0  0  0  0  0  0  0
  -34.2851    4.4945  -42.9935 C   0  0  0  0  0  0  0  0  0  0  0  0
  -34.8402    3.8965  -44.2883 C   0  0  0  0  0  0  0  0  0  0  0  0
  -36.7647    2.2947  -48.1672 X   0  0  0  0  0  0  0  0  0  0  0  0
  1  2  1  0  0  0  0
  2  3  1  0  0  0  0
  3  4  1  0  0  0  0
  4  5  1  0  0  0  0
  4 15  1  0  0  0  0
  5  6  1  0  0  0  0
  6  7  1  0  0  0  0
  7  8  1  0  0  0  0
  7 14  1  0  0  0  0
  8  9  1  0  0  0  0
  9 10  1  0  0  0  0
 10 11  1  0  0  0  0
 10 13  1  0  0  0  0
 11 12  1  0  0  0  0
 13 14  1  0  0  0  0
M  END
> <Index>
14999

> <PropertyFieldDistance>
nan

$$$$
13908116
BBcorina  12272117083D 1   1.00000     0.00000 
CORINA 4.3.0 0026  30.10.2019
 13 14  0  0  0  0  0  0  0  0999 V2000
  -36.3052    2.2532  -44.8680 C   0  0  0  0  0  0  0  0  0  0  0  0
  -35.9941    3.5037  -44.1712 N   0  0  0  0  0  0  0  0  0  0  0  0
  -37.1006    4.2694  -43.6109 C   0  0  0  0  0  0  0  0  0  0  0  0
  -36.6000    5.2356  -42.5370 C   0  0  0  0  0  0  0  0  0  0  0  0
  -35.4326    6.0487  -43.1109 C   0  0  0  0  0  0  0  0  0  0  0  0
  -34.2609    5.1016  -43.3582 C   0  0  0  0  0  0  0  0  0  0  0  0
  -33.1642    5.8260  -44.1666 C   0  0  0  0  0  0  0  0  0  0  0  0
  -31.8569    5.3199  -43.5050 C   0  0  0  0  0  0  0  0  0  0  0  0
  -32.2143    5.2334  -42.0655 N   0  0  0  0  0  0  0  0  0  0  0  0
  -33.6015    4.7191  -42.0242 C   0  0  0  0  0  0  0  0  0  0  0  0
  -34.7139    3.8742  -44.0878 C   0  0  0  0  0  0  0  0  0  0  0  0
  -33.8770    3.1830  -44.6288 O   0  0  0  0  0  0  0  0  0  0  0  0
  -31.1483    4.1887  -41.2311 X   0  0  0  0  0  0  0  0  0  0  0  0
  1  2  1  0  0  0  0
  2  3  1  0  0  0  0
  2 11  1  0  0  0  0
  3  4  1  0  0  0  0
  4  5  1  0  0  0  0
  5  6  1  0  0  0  0
  6  7  1  0  0  0  0
  6 10  1  0  0  0  0
  6 11  1  0  0  0  0
  7  8  1  0  0  0  0
  8  9  1  0  0  0  0
  9 10  1  0  0  0  0
  9 13  1  0  0  0  0
 11 12  2  0  0  0  0
M  END
> <Index>
15000

> <PropertyFieldDistance>
nan

$$$$
7945710
BBcorina  12272117083D 1   1.00000     0.00000 
CORINA 4.3.0 0026  30.10.2019
 11 11  0  0  0  0  0  0  0  0999 V2000
  -36.5934    7.9644  -43.3190 C   0  0  0  0  0  0  0  0  0  0  0  0
  -35.5547    6.9450  -43.7910 C   0  0  0  0  0  0  0  0  0  0  0  0
  -35.3534    5.8832  -42.7080 C   0  0  0  0  0  0  0  0  0  0  0  0
  -34.9466    6.5601  -41.3975 C   0  0  0  0  0  0  0  0  0  0  0  0
  -33.8009    7.3839  -41.6226 O   0  0  0  0  0  0  0  0  0  0  0  0
  -36.6587    5.1099  -42.5007 C   0  0  0  0  0  0  0  0  0  0  0  0
  -37.0290    4.3869  -43.7977 C   0  0  0  0  0  0  0  0  0  0  0  0
  -35.9480    3.4664  -44.1723 N   0  0  0  0  0  0  0  0  0  0  0  0
  -34.6958    4.1917  -44.4226 C   0  0  0  0  0  0  0  0  0  0  0  0
  -34.2559    4.9087  -43.1443 C   0  0  0  0  0  0  0  0  0  0  0  0
  -36.3900    2.5210  -45.5270 X   0  0  0  0  0  0  0  0  0  0  0  0
  1  2  1  0  0  0  0
  2  3  1  0  0  0  0
  3  4  1  0  0  0  0
  3  6  1  0  0  0  0
  3 10  1  0  0  0  0
  4  5  1  0  0  0  0
  6  7  1  0  0  0  0
  7  8  1  0  0  0  0
  8  9  1  0  0  0  0
  8 11  1  0  0  0  0
  9 10  1  0  0  0  0
M  END
> <Index>
15001

> <PropertyFieldDistance>
nan

$$$$
15269720
BBcorina  12272117083D 1   1.00000     0.00000 
CORINA 4.3.0 0026  30.10.2019
  7  7  0  0  0  0  0  0  0  0999 V2000
  -38.4204    3.9977  -43.8133 C   0  0  0  0  0  0  0  0  0  0  0  0
  -36.9946    4.5502  -43.8666 C   0  0  0  0  0  0  0  0  0  0  0  0
  -36.4718    4.8295  -42.4412 C   0  0  0  0  0  0  0  0  0  0  0  0
  -34.9804    4.4370  -42.4773 C   0  0  0  0  0  0  0  0  0  0  0  0
  -34.7276    3.9536  -43.9215 C   0  0  0  0  0  0  0  0  0  0  0  0
  -36.0637    3.5298  -44.4136 N   0  0  0  0  0  0  0  0  0  0  0  0
  -36.1098    3.5118  -46.1229 X   0  0  0  0  0  0  0  0  0  0  0  0
  1  2  1  0  0  0  0
  2  3  1  0  0  0  0
  2  6  1  0  0  0  0
  3  4  1  0  0  0  0
  4  5  1  0  0  0  0
  5  6  1  0  0  0  0
  6  7  1  0  0  0  0
M  END
> <Index>
15002

> <PropertyFieldDistance>
nan

$$$$
15501604
BBcorina  12272117083D 1   1.00000     0.00000 
CORINA 4.3.0 0026  30.10.2019
  7  7  0  0  0  0  0  0  0  0999 V2000
  -38.4204    3.9977  -43.8133 C   0  0  0  0  0  0  0  0  0  0  0  0
  -36.9946    4.5502  -43.8666 C   0  0  0  0  0  0  0  0  0  0  0  0
  -36.4718    4.8295  -42.4412 C   0  0  0  0  0  0  0  0  0  0  0  0
  -34.9804    4.4370  -42.4773 C   0  0  0  0  0  0  0  0  0  0  0  0
  -34.7276    3.9536  -43.9215 C   0  0  0  0  0  0  0  0  0  0  0  0
  -36.0637    3.5298  -44.4136 N   0  0  0  0  0  0  0  0  0  0  0  0
  -36.1098    3.5118  -46.1229 X   0  0  0  0  0  0  0  0  0  0  0  0
  1  2  1  0  0  0  0
  2  3  1  0  0  0  0
  2  6  1  0  0  0  0
  3  4  1  0  0  0  0
  4  5  1  0  0  0  0
  5  6  1  0  0  0  0
  6  7  1  0  0  0  0
M  END
> <Index>
15003

> <PropertyFieldDistance>
nan

$$$$
11734322
BBcorina  12272117083D 1   1.00000     0.00000 
CORINA 4.3.0 0026  30.10.2019
 11 11  0  0  0  0  0  0  0  0999 V2000
  -38.0560   -0.3577  -46.2101 C   0  0  0  0  0  0  0  0  0  0  0  0
  -37.0495    0.6955  -46.3992 N   0  0  0  0  0  0  0  0  0  0  0  0
  -36.9052    1.5099  -45.1852 C   0  0  0  0  0  0  0  0  0  0  0  0
  -35.8508    2.5933  -45.4202 C   0  0  0  0  0  0  0  0  0  0  0  0
  -35.7064    3.4078  -44.2062 N   0  0  0  0  0  0  0  0  0  0  0  0
  -36.9352    4.1628  -43.9298 C   0  0  0  0  0  0  0  0  0  0  0  0
  -36.8018    4.8830  -42.5862 C   0  0  0  0  0  0  0  0  0  0  0  0
  -35.5994    5.8298  -42.6374 C   0  0  0  0  0  0  0  0  0  0  0  0
  -34.3407    5.0258  -42.9745 C   0  0  0  0  0  0  0  0  0  0  0  0
  -34.5455    4.3014  -44.3069 C   0  0  0  0  0  0  0  0  0  0  0  0
  -35.5472    0.0295  -46.8726 X   0  0  0  0  0  0  0  0  0  0  0  0
  1  2  1  0  0  0  0
  2  3  1  0  0  0  0
  2 11  1  0  0  0  0
  3  4  1  0  0  0  0
  4  5  1  0  0  0  0
  5  6  1  0  0  0  0
  5 10  1  0  0  0  0
  6  7  1  0  0  0  0
  7  8  1  0  0  0  0
  8  9  1  0  0  0  0
  9 10  1  0  0  0  0
M  END
> <Index>
15004

> <PropertyFieldDistance>
nan

$$$$
6813978
BBcorina  12272117083D 1   1.00000     0.00000 
CORINA 4.3.0 0026  30.10.2019
  7  7  0  0  0  0  0  0  0  0999 V2000
  -33.9949    5.0605  -41.7635 C   0  0  0  0  0  0  0  0  0  0  0  0
  -35.0969    4.1856  -42.3642 C   0  0  0  0  0  0  0  0  0  0  0  0
  -36.4137    4.9933  -42.5334 C   0  0  0  0  0  0  0  0  0  0  0  0
  -37.1005    4.2362  -43.6974 C   0  0  0  0  0  0  0  0  0  0  0  0
  -35.9952    3.8463  -44.5984 N   0  0  0  0  0  0  0  0  0  0  0  0
  -34.7483    3.7874  -43.8138 C   0  0  0  0  0  0  0  0  0  0  0  0
  -36.3178    2.3444  -45.3498 X   0  0  0  0  0  0  0  0  0  0  0  0
  1  2  1  0  0  0  0
  2  3  1  0  0  0  0
  2  6  1  0  0  0  0
  3  4  1  0  0  0  0
  4  5  1  0  0  0  0
  5  6  1  0  0  0  0
  5  7  1  0  0  0  0
M  END
> <Index>
15005

> <PropertyFieldDistance>
nan

$$$$
8601746
BBcorina  12272117083D 1   1.00000     0.00000 
CORINA 4.3.0 0026  30.10.2019
 10 10  0  0  0  0  0  0  0  0999 V2000
  -34.3454    3.7937  -42.0532 N   0  0  0  0  0  0  0  0  0  0  0  0
  -34.0521    4.7137  -43.1603 C   0  0  0  0  0  0  0  0  0  0  0  0
  -34.6145    6.1006  -42.8392 C   0  0  0  0  0  0  0  0  0  0  0  0
  -35.9119    5.9875  -42.0595 C   0  0  0  0  0  0  0  0  0  0  0  0
  -37.0545    5.3839  -42.8555 C   0  0  0  0  0  0  0  0  0  0  0  0
  -36.7787    3.9136  -43.1761 C   0  0  0  0  0  0  0  0  0  0  0  0
  -35.9918    3.8420  -44.4180 N   0  0  0  0  0  0  0  0  0  0  0  0
  -34.7101    4.2104  -44.4278 C   0  0  0  0  0  0  0  0  0  0  0  0
  -34.0694    4.1421  -45.4554 O   0  0  0  0  0  0  0  0  0  0  0  0
  -34.3609    2.1711  -42.5924 X   0  0  0  0  0  0  0  0  0  0  0  0
  1  2  1  0  0  0  0
  1 10  1  0  0  0  0
  2  3  1  0  0  0  0
  2  8  1  0  0  0  0
  3  4  1  0  0  0  0
  4  5  1  0  0  0  0
  5  6  1  0  0  0  0
  6  7  1  0  0  0  0
  7  8  1  0  0  0  0
  8  9  2  0  0  0  0
M  END
> <Index>
15007

> <PropertyFieldDistance>
nan

$$$$
12411766
BBcorina  12272117083D 1   1.00000     0.00000 
CORINA 4.3.0 0026  30.10.2019
 16 17  0  0  0  0  0  0  0  0999 V2000
  -36.3354    2.3075  -44.8786 C   0  0  0  0  0  0  0  0  0  0  0  0
  -35.9454    3.3417  -43.9110 N   0  0  0  0  0  0  0  0  0  0  0  0
  -37.0433    4.2897  -43.6827 C   0  0  0  0  0  0  0  0  0  0  0  0
  -36.6554    5.2624  -42.5667 C   0  0  0  0  0  0  0  0  0  0  0  0
  -35.3834    6.0133  -42.9701 C   0  0  0  0  0  0  0  0  0  0  0  0
  -35.6536    6.8364  -44.2311 C   0  0  0  0  0  0  0  0  0  0  0  0
  -34.4325    7.5562  -44.6171 N   0  0  0  0  0  0  0  0  0  0  0  0
  -34.2691    5.0007  -43.2489 C   0  0  0  0  0  0  0  0  0  0  0  0
  -34.7262    4.0356  -44.3451 C   0  0  0  0  0  0  0  0  0  0  0  0
  -34.9635    6.9305  -41.8505 C   0  0  0  0  0  0  0  0  0  0  0  0
  -33.8325    7.7137  -41.9858 C   0  0  0  0  0  0  0  0  0  0  0  0
  -33.4474    8.5549  -40.9588 C   0  0  0  0  0  0  0  0  0  0  0  0
  -34.1934    8.6133  -39.7965 C   0  0  0  0  0  0  0  0  0  0  0  0
  -35.3249    7.8307  -39.6615 C   0  0  0  0  0  0  0  0  0  0  0  0
  -35.7125    6.9927  -40.6902 C   0  0  0  0  0  0  0  0  0  0  0  0
  -34.6914    8.4909  -46.0255 X   0  0  0  0  0  0  0  0  0  0  0  0
  1  2  1  0  0  0  0
  2  3  1  0  0  0  0
  2  9  1  0  0  0  0
  3  4  1  0  0  0  0
  4  5  1  0  0  0  0
  5  6  1  0  0  0  0
  5  8  1  0  0  0  0
  5 10  1  0  0  0  0
  6  7  1  0  0  0  0
  7 16  1  0  0  0  0
  8  9  1  0  0  0  0
 10 11  2  0  0  0  0
 10 15  1  0  0  0  0
 11 12  1  0  0  0  0
 12 13  2  0  0  0  0
 13 14  1  0  0  0  0
 14 15  2  0  0  0  0
M  END
> <Index>
15022

> <PropertyFieldDistance>
nan

$$$$
5825264
BBcorina  12272117083D 1   1.00000     0.00000 
CORINA 4.3.0 0026  30.10.2019
 12 12  0  0  0  0  0  0  0  0999 V2000
  -35.7987    1.9261  -46.0673 C   0  0  0  0  0  0  0  0  0  0  0  0
  -36.5188    2.2380  -44.7540 C   0  0  0  0  0  0  0  0  0  0  0  0
  -36.1324    3.5770  -44.2896 N   0  0  0  0  0  0  0  0  0  0  0  0
  -36.9749    4.0081  -43.1668 C   0  0  0  0  0  0  0  0  0  0  0  0
  -36.6430    5.4576  -42.8054 C   0  0  0  0  0  0  0  0  0  0  0  0
  -35.1631    5.5578  -42.4253 C   0  0  0  0  0  0  0  0  0  0  0  0
  -34.8110    7.0151  -42.1202 C   0  0  0  0  0  0  0  0  0  0  0  0
  -33.3671    7.0971  -41.6208 C   0  0  0  0  0  0  0  0  0  0  0  0
  -33.0290    8.4964  -41.3279 N   0  0  0  0  0  0  0  0  0  0  0  0
  -34.3092    5.0575  -43.5937 C   0  0  0  0  0  0  0  0  0  0  0  0
  -34.7087    3.6195  -43.9322 C   0  0  0  0  0  0  0  0  0  0  0  0
  -31.4199    8.6333  -40.7655 X   0  0  0  0  0  0  0  0  0  0  0  0
  1  2  1  0  0  0  0
  2  3  1  0  0  0  0
  3  4  1  0  0  0  0
  3 11  1  0  0  0  0
  4  5  1  0  0  0  0
  5  6  1  0  0  0  0
  6  7  1  0  0  0  0
  6 10  1  0  0  0  0
  7  8  1  0  0  0  0
  8  9  1  0  0  0  0
  9 12  1  0  0  0  0
 10 11  1  0  0  0  0
M  END
> <Index>
15031

> <PropertyFieldDistance>
nan

$$$$
11952364
BBcorina  12272117083D 1   1.00000     0.00000 
CORINA 4.3.0 0026  30.10.2019
 12 13  0  0  0  0  0  0  0  0999 V2000
  -36.0709    3.9609  -44.4694 N   0  0  0  0  0  0  0  0  0  0  0  0
  -36.7432    3.9103  -43.1939 C   0  0  0  0  0  0  0  0  0  0  0  0
  -37.1070    5.3479  -42.7808 C   0  0  0  0  0  0  0  0  0  0  0  0
  -35.9874    6.0580  -42.1701 C   0  0  0  0  0  0  0  0  0  0  0  0
  -34.8034    6.1873  -43.1536 C   0  0  0  0  0  0  0  0  0  0  0  0
  -35.3411    6.6101  -44.5290 C   0  0  0  0  0  0  0  0  0  0  0  0
  -34.7222    7.9904  -44.8351 C   0  0  0  0  0  0  0  0  0  0  0  0
  -33.4352    8.0287  -43.9738 C   0  0  0  0  0  0  0  0  0  0  0  0
  -33.8731    7.3143  -42.6704 C   0  0  0  0  0  0  0  0  0  0  0  0
  -34.0718    4.8757  -43.2313 C   0  0  0  0  0  0  0  0  0  0  0  0
  -34.5944    3.9687  -44.3624 C   0  0  0  0  0  0  0  0  0  0  0  0
  -36.6044    2.6998  -45.4937 X   0  0  0  0  0  0  0  0  0  0  0  0
  1  2  1  0  0  0  0
  1 11  1  0  0  0  0
  1 12  1  0  0  0  0
  2  3  1  0  0  0  0
  3  4  1  0  0  0  0
  4  5  1  0  0  0  0
  5  6  1  0  0  0  0
  5  9  1  0  0  0  0
  5 10  1  0  0  0  0
  6  7  1  0  0  0  0
  7  8  1  0  0  0  0
  8  9  1  0  0  0  0
 10 11  1  0  0  0  0
M  END
> <Index>
15039

> <PropertyFieldDistance>
nan

$$$$
14726324
BBcorina  12272117083D 1   1.00000     0.00000 
CORINA 4.3.0 0026  30.10.2019
 11 12  0  0  0  0  0  0  0  0999 V2000
  -37.6215    5.8070  -41.7308 C   0  0  0  0  0  0  0  0  0  0  0  0
  -36.6112    5.4224  -42.8135 C   0  0  0  0  0  0  0  0  0  0  0  0
  -37.0609    4.1224  -43.4923 C   0  0  0  0  0  0  0  0  0  0  0  0
  -35.9675    3.6491  -44.3470 N   0  0  0  0  0  0  0  0  0  0  0  0
  -36.0169    2.7120  -45.3776 N   0  0  0  0  0  0  0  0  0  0  0  0
  -34.8109    2.5940  -45.8784 C   0  0  0  0  0  0  0  0  0  0  0  0
  -33.9573    3.4552  -45.1761 C   0  0  0  0  0  0  0  0  0  0  0  0
  -34.6900    4.0889  -44.2423 C   0  0  0  0  0  0  0  0  0  0  0  0
  -34.2397    5.1129  -43.2305 C   0  0  0  0  0  0  0  0  0  0  0  0
  -35.2885    5.2307  -42.2020 N   0  0  0  0  0  0  0  0  0  0  0  0
  -34.9318    6.4928  -41.1047 X   0  0  0  0  0  0  0  0  0  0  0  0
  1  2  1  0  0  0  0
  2  3  1  0  0  0  0
  2 10  1  0  0  0  0
  3  4  1  0  0  0  0
  4  5  1  0  0  0  0
  4  8  1  0  0  0  0
  5  6  2  0  0  0  0
  6  7  1  0  0  0  0
  7  8  2  0  0  0  0
  8  9  1  0  0  0  0
  9 10  1  0  0  0  0
 10 11  1  0  0  0  0
M  END
> <Index>
15056

> <PropertyFieldDistance>
nan

$$$$
9047652
BBcorina  12272117083D 1   1.00000     0.00000 
CORINA 4.3.0 0026  30.10.2019
  9  9  0  0  0  0  0  0  0  0999 V2000
  -37.7755    6.0849  -42.1226 C   0  0  0  0  0  0  0  0  0  0  0  0
  -36.6587    5.1099  -42.5007 C   0  0  0  0  0  0  0  0  0  0  0  0
  -37.0290    4.3869  -43.7977 C   0  0  0  0  0  0  0  0  0  0  0  0
  -35.9479    3.4664  -44.1723 N   0  0  0  0  0  0  0  0  0  0  0  0
  -34.6959    4.1916  -44.4226 C   0  0  0  0  0  0  0  0  0  0  0  0
  -34.2558    4.9088  -43.1443 C   0  0  0  0  0  0  0  0  0  0  0  0
  -35.3535    5.8832  -42.7080 C   0  0  0  0  0  0  0  0  0  0  0  0
  -35.5414    6.8748  -43.7196 O   0  0  0  0  0  0  0  0  0  0  0  0
  -36.3899    2.5210  -45.5269 X   0  0  0  0  0  0  0  0  0  0  0  0
  1  2  1  0  0  0  0
  2  3  1  0  0  0  0
  2  7  1  0  0  0  0
  3  4  1  0  0  0  0
  4  5  1  0  0  0  0
  4  9  1  0  0  0  0
  5  6  1  0  0  0  0
  6  7  1  0  0  0  0
  7  8  1  0  0  0  0
M  END
> <Index>
15063

> <PropertyFieldDistance>
nan

$$$$
10547546
BBcorina  12272117083D 1   1.00000     0.00000 
CORINA 4.3.0 0026  30.10.2019
  8  8  0  0  0  0  0  0  0  0999 V2000
  -37.5657    5.3164  -41.4221 C   0  0  0  0  0  0  0  0  0  0  0  0
  -36.6293    5.2502  -42.6303 C   0  0  0  0  0  0  0  0  0  0  0  0
  -36.9723    4.0211  -43.4763 C   0  0  0  0  0  0  0  0  0  0  0  0
  -36.0215    3.9203  -44.5930 N   0  0  0  0  0  0  0  0  0  0  0  0
  -34.6419    3.8204  -44.0951 C   0  0  0  0  0  0  0  0  0  0  0  0
  -34.3222    5.0515  -43.2429 C   0  0  0  0  0  0  0  0  0  0  0  0
  -35.2751    5.1506  -42.1812 O   0  0  0  0  0  0  0  0  0  0  0  0
  -36.4046    2.5974  -45.6065 X   0  0  0  0  0  0  0  0  0  0  0  0
  1  2  1  0  0  0  0
  2  3  1  0  0  0  0
  2  7  1  0  0  0  0
  3  4  1  0  0  0  0
  4  5  1  0  0  0  0
  4  8  1  0  0  0  0
  5  6  1  0  0  0  0
  6  7  1  0  0  0  0
M  END
> <Index>
15064

> <PropertyFieldDistance>
nan

$$$$
10547510
BBcorina  12272117083D 1   1.00000     0.00000 
CORINA 4.3.0 0026  30.10.2019
  8  8  0  0  0  0  0  0  0  0999 V2000
  -37.5657    5.3164  -41.4221 C   0  0  0  0  0  0  0  0  0  0  0  0
  -36.6293    5.2502  -42.6303 C   0  0  0  0  0  0  0  0  0  0  0  0
  -36.9723    4.0211  -43.4763 C   0  0  0  0  0  0  0  0  0  0  0  0
  -36.0215    3.9203  -44.5930 N   0  0  0  0  0  0  0  0  0  0  0  0
  -34.6419    3.8204  -44.0951 C   0  0  0  0  0  0  0  0  0  0  0  0
  -34.3222    5.0515  -43.2429 C   0  0  0  0  0  0  0  0  0  0  0  0
  -35.2751    5.1506  -42.1812 O   0  0  0  0  0  0  0  0  0  0  0  0
  -36.4046    2.5974  -45.6065 X   0  0  0  0  0  0  0  0  0  0  0  0
  1  2  1  0  0  0  0
  2  3  1  0  0  0  0
  2  7  1  0  0  0  0
  3  4  1  0  0  0  0
  4  5  1  0  0  0  0
  4  8  1  0  0  0  0
  5  6  1  0  0  0  0
  6  7  1  0  0  0  0
M  END
> <Index>
15065

> <PropertyFieldDistance>
nan

$$$$
18073352
BBcorina  12272117083D 1   1.00000     0.00000 
CORINA 4.3.0 0026  30.10.2019
  9 10  0  0  0  0  0  0  0  0999 V2000
  -35.9583    3.3361  -45.3629 C   0  0  0  0  0  0  0  0  0  0  0  0
  -36.1103    3.1742  -43.9109 N   0  0  0  0  0  0  0  0  0  0  0  0
  -37.1297    4.1399  -43.3733 C   0  0  0  0  0  0  0  0  0  0  0  0
  -36.3520    4.9484  -42.2892 C   0  0  0  0  0  0  0  0  0  0  0  0
  -35.3606    3.8472  -41.7681 C   0  0  0  0  0  0  0  0  0  0  0  0
  -34.8290    3.4802  -43.1998 C   0  0  0  0  0  0  0  0  0  0  0  0
  -34.4420    4.9033  -43.7085 C   0  0  0  0  0  0  0  0  0  0  0  0
  -35.4239    5.8184  -43.0782 N   0  0  0  0  0  0  0  0  0  0  0  0
  -36.2774    6.7103  -44.2614 X   0  0  0  0  0  0  0  0  0  0  0  0
  1  2  1  0  0  0  0
  2  3  1  0  0  0  0
  2  6  1  0  0  0  0
  3  4  1  0  0  0  0
  4  5  1  0  0  0  0
  4  8  1  0  0  0  0
  5  6  1  0  0  0  0
  6  7  1  0  0  0  0
  7  8  1  0  0  0  0
  8  9  1  0  0  0  0
M  END
> <Index>
15067

> <PropertyFieldDistance>
nan

$$$$
8364292
BBcorina  12272117083D 1   1.00000     0.00000 
CORINA 4.3.0 0026  30.10.2019
  8  8  0  0  0  0  0  0  0  0999 V2000
  -36.9017    6.2451  -42.1200 N   0  0  0  0  0  0  0  0  0  0  0  0
  -36.4463    4.8916  -42.4646 C   0  0  0  0  0  0  0  0  0  0  0  0
  -37.0412    4.4352  -43.8152 C   0  0  0  0  0  0  0  0  0  0  0  0
  -35.9837    3.6514  -44.4640 N   0  0  0  0  0  0  0  0  0  0  0  0
  -34.7864    3.8849  -43.8993 C   0  0  0  0  0  0  0  0  0  0  0  0
  -33.7428    3.3741  -44.2470 O   0  0  0  0  0  0  0  0  0  0  0  0
  -34.9300    4.8784  -42.7675 C   0  0  0  0  0  0  0  0  0  0  0  0
  -36.6126    7.3348  -43.4057 X   0  0  0  0  0  0  0  0  0  0  0  0
  1  2  1  0  0  0  0
  1  8  1  0  0  0  0
  2  3  1  0  0  0  0
  2  7  1  0  0  0  0
  3  4  1  0  0  0  0
  4  5  1  0  0  0  0
  5  6  2  0  0  0  0
  5  7  1  0  0  0  0
M  END
> <Index>
15068

> <PropertyFieldDistance>
nan

$$$$
12103090
BBcorina  12272117083D 1   1.00000     0.00000 
CORINA 4.3.0 0026  30.10.2019
 11 11  0  0  0  0  0  0  0  0999 V2000
  -35.2417    3.1012  -48.1585 N   0  0  0  0  0  0  0  0  0  0  0  0
  -35.1545    2.8019  -46.7291 O   0  0  0  0  0  0  0  0  0  0  0  0
  -36.3430    2.2273  -46.1821 C   0  0  0  0  0  0  0  0  0  0  0  0
  -36.1389    1.9574  -44.6899 C   0  0  0  0  0  0  0  0  0  0  0  0
  -35.9623    3.2285  -43.9834 N   0  0  0  0  0  0  0  0  0  0  0  0
  -37.0595    4.0155  -43.4079 C   0  0  0  0  0  0  0  0  0  0  0  0
  -36.4778    5.4273  -43.1734 C   0  0  0  0  0  0  0  0  0  0  0  0
  -34.9683    5.1259  -43.0262 C   0  0  0  0  0  0  0  0  0  0  0  0
  -34.7743    3.8273  -43.7776 C   0  0  0  0  0  0  0  0  0  0  0  0
  -33.7038    3.3890  -44.1424 O   0  0  0  0  0  0  0  0  0  0  0  0
  -33.7825    3.7839  -48.7317 X   0  0  0  0  0  0  0  0  0  0  0  0
  1  2  1  0  0  0  0
  1 11  1  0  0  0  0
  2  3  1  0  0  0  0
  3  4  1  0  0  0  0
  4  5  1  0  0  0  0
  5  6  1  0  0  0  0
  5  9  1  0  0  0  0
  6  7  1  0  0  0  0
  7  8  1  0  0  0  0
  8  9  1  0  0  0  0
  9 10  2  0  0  0  0
M  END
> <Index>
15074

> <PropertyFieldDistance>
nan

$$$$
6465670
BBcorina  12272117083D 1   1.00000     0.00000 
CORINA 4.3.0 0026  30.10.2019
 13 14  0  0  0  0  0  0  0  0999 V2000
  -36.2487    2.2632  -44.7878 C   0  0  0  0  0  0  0  0  0  0  0  0
  -36.0833    3.6717  -44.4044 N   0  0  0  0  0  0  0  0  0  0  0  0
  -36.9318    4.0070  -43.2549 C   0  0  0  0  0  0  0  0  0  0  0  0
  -36.6265    5.4478  -42.8253 C   0  0  0  0  0  0  0  0  0  0  0  0
  -35.2622    5.4990  -42.3953 O   0  0  0  0  0  0  0  0  0  0  0  0
  -34.3468    4.8750  -43.1890 C   0  0  0  0  0  0  0  0  0  0  0  0
  -33.0009    5.1509  -42.9965 C   0  0  0  0  0  0  0  0  0  0  0  0
  -32.0436    4.5301  -43.7758 C   0  0  0  0  0  0  0  0  0  0  0  0
  -32.4283    3.6303  -44.7605 C   0  0  0  0  0  0  0  0  0  0  0  0
  -31.4604    3.0043  -45.5537 N   0  0  0  0  0  0  0  0  0  0  0  0
  -33.7723    3.3482  -44.9540 C   0  0  0  0  0  0  0  0  0  0  0  0
  -34.7377    3.9730  -44.1718 C   0  0  0  0  0  0  0  0  0  0  0  0
  -29.8030    3.3477  -45.3104 X   0  0  0  0  0  0  0  0  0  0  0  0
  1  2  1  0  0  0  0
  2  3  1  0  0  0  0
  2 12  1  0  0  0  0
  3  4  1  0  0  0  0
  4  5  1  0  0  0  0
  5  6  1  0  0  0  0
  6  7  2  0  0  0  0
  6 12  1  0  0  0  0
  7  8  1  0  0  0  0
  8  9  2  0  0  0  0
  9 10  1  0  0  0  0
  9 11  1  0  0  0  0
 10 13  1  0  0  0  0
 11 12  2  0  0  0  0
M  END
> <Index>
15077

> <PropertyFieldDistance>
nan

$$$$
11352474
BBcorina  12272117083D 1   1.00000     0.00000 
CORINA 4.3.0 0026  30.10.2019
 12 12  0  0  0  0  0  0  0  0999 V2000
  -36.4669    0.6073  -46.6923 C   0  0  0  0  0  0  0  0  0  0  0  0
  -36.2716    1.3427  -45.3650 C   0  0  0  0  0  0  0  0  0  0  0  0
  -36.1772    2.8475  -45.6247 C   0  0  0  0  0  0  0  0  0  0  0  0
  -35.9901    3.5517  -44.3537 N   0  0  0  0  0  0  0  0  0  0  0  0
  -37.0859    4.0463  -43.5120 C   0  0  0  0  0  0  0  0  0  0  0  0
  -36.4383    5.0670  -42.5501 C   0  0  0  0  0  0  0  0  0  0  0  0
  -36.5191    6.4848  -43.1195 C   0  0  0  0  0  0  0  0  0  0  0  0
  -35.9355    7.4317  -42.1600 N   0  0  0  0  0  0  0  0  0  0  0  0
  -34.9742    4.5718  -42.5040 C   0  0  0  0  0  0  0  0  0  0  0  0
  -34.7928    3.8281  -43.8089 C   0  0  0  0  0  0  0  0  0  0  0  0
  -33.7228    3.5250  -44.2927 O   0  0  0  0  0  0  0  0  0  0  0  0
  -36.0056    9.0321  -42.7586 X   0  0  0  0  0  0  0  0  0  0  0  0
  1  2  1  0  0  0  0
  2  3  1  0  0  0  0
  3  4  1  0  0  0  0
  4  5  1  0  0  0  0
  4 10  1  0  0  0  0
  5  6  1  0  0  0  0
  6  7  1  0  0  0  0
  6  9  1  0  0  0  0
  7  8  1  0  0  0  0
  8 12  1  0  0  0  0
  9 10  1  0  0  0  0
 10 11  2  0  0  0  0
M  END
> <Index>
15083

> <PropertyFieldDistance>
nan

$$$$
17655980
BBcorina  12272117083D 1   1.00000     0.00000 
CORINA 4.3.0 0026  30.10.2019
 11 12  0  0  0  0  0  0  0  0999 V2000
  -36.3620    2.4298  -45.0242 C   0  0  0  0  0  0  0  0  0  0  0  0
  -35.9532    3.3097  -43.9211 N   0  0  0  0  0  0  0  0  0  0  0  0
  -37.0219    4.2577  -43.5806 C   0  0  0  0  0  0  0  0  0  0  0  0
  -37.3046    5.1640  -44.7806 C   0  0  0  0  0  0  0  0  0  0  0  0
  -36.0268    5.9190  -45.1569 C   0  0  0  0  0  0  0  0  0  0  0  0
  -34.9179    4.9083  -45.4624 C   0  0  0  0  0  0  0  0  0  0  0  0
  -34.7030    4.0101  -44.2423 C   0  0  0  0  0  0  0  0  0  0  0  0
  -34.2736    4.8647  -43.0481 C   0  0  0  0  0  0  0  0  0  0  0  0
  -35.3431    5.8175  -42.7197 N   0  0  0  0  0  0  0  0  0  0  0  0
  -36.5881    5.1110  -42.3870 C   0  0  0  0  0  0  0  0  0  0  0  0
  -34.8691    6.8563  -41.4468 X   0  0  0  0  0  0  0  0  0  0  0  0
  1  2  1  0  0  0  0
  2  3  1  0  0  0  0
  2  7  1  0  0  0  0
  3  4  1  0  0  0  0
  3 10  1  0  0  0  0
  4  5  1  0  0  0  0
  5  6  1  0  0  0  0
  6  7  1  0  0  0  0
  7  8  1  0  0  0  0
  8  9  1  0  0  0  0
  9 10  1  0  0  0  0
  9 11  1  0  0  0  0
M  END
> <Index>
15135

> <PropertyFieldDistance>
nan

$$$$
15139864
BBcorina  12272117083D 1   1.00000     0.00000 
CORINA 4.3.0 0026  30.10.2019
 14 15  0  0  0  0  0  0  0  0999 V2000
  -35.2854   -0.1081  -48.2634 N   0  0  0  0  0  0  0  0  0  0  0  0
  -35.9093   -0.5251  -47.0005 C   0  0  0  0  0  0  0  0  0  0  0  0
  -36.3221    0.6945  -46.2174 C   0  0  0  0  0  0  0  0  0  0  0  0
  -37.4712    1.2998  -46.2872 N   0  0  0  0  0  0  0  0  0  0  0  0
  -37.4789    2.3030  -45.4818 N   0  0  0  0  0  0  0  0  0  0  0  0
  -36.3244    2.3727  -44.8650 C   0  0  0  0  0  0  0  0  0  0  0  0
  -35.5679    1.3558  -45.3177 O   0  0  0  0  0  0  0  0  0  0  0  0
  -35.9532    3.3151  -43.9240 N   0  0  0  0  0  0  0  0  0  0  0  0
  -37.0413    4.2731  -43.6800 C   0  0  0  0  0  0  0  0  0  0  0  0
  -36.6107    5.2599  -42.5916 C   0  0  0  0  0  0  0  0  0  0  0  0
  -35.4000    5.9066  -42.9933 O   0  0  0  0  0  0  0  0  0  0  0  0
  -34.3188    5.0032  -43.2387 C   0  0  0  0  0  0  0  0  0  0  0  0
  -34.7263    4.0137  -44.3338 C   0  0  0  0  0  0  0  0  0  0  0  0
  -34.8009   -1.4645  -49.1848 X   0  0  0  0  0  0  0  0  0  0  0  0
  1  2  1  0  0  0  0
  1 14  1  0  0  0  0
  2  3  1  0  0  0  0
  3  4  2  0  0  0  0
  3  7  1  0  0  0  0
  4  5  1  0  0  0  0
  5  6  2  0  0  0  0
  6  7  1  0  0  0  0
  6  8  1  0  0  0  0
  8  9  1  0  0  0  0
  8 13  1  0  0  0  0
  9 10  1  0  0  0  0
 10 11  1  0  0  0  0
 11 12  1  0  0  0  0
 12 13  1  0  0  0  0
M  END
> <Index>
15152

> <PropertyFieldDistance>
nan

$$$$
12424840
BBcorina  12272117083D 1   1.00000     0.00000 
CORINA 4.3.0 0026  30.10.2019
 13 14  0  0  0  0  0  0  0  0999 V2000
  -36.0191    3.9414  -44.5845 N   0  0  0  0  0  0  0  0  0  0  0  0
  -36.9723    4.0087  -43.4694 C   0  0  0  0  0  0  0  0  0  0  0  0
  -36.6793    5.2476  -42.6202 C   0  0  0  0  0  0  0  0  0  0  0  0
  -35.2462    5.1676  -42.0870 C   0  0  0  0  0  0  0  0  0  0  0  0
  -34.9267    6.4323  -41.2874 C   0  0  0  0  0  0  0  0  0  0  0  0
  -33.5626    6.2995  -40.6611 C   0  0  0  0  0  0  0  0  0  0  0  0
  -32.4574    6.6731  -41.2123 N   0  0  0  0  0  0  0  0  0  0  0  0
  -31.3486    6.4798  -40.5267 C   0  0  0  0  0  0  0  0  0  0  0  0
  -31.5297    5.9214  -39.3261 C   0  0  0  0  0  0  0  0  0  0  0  0
  -33.2559    5.6388  -39.1142 S   0  0  0  0  0  0  0  0  0  0  0  0
  -34.2769    5.0496  -43.2665 C   0  0  0  0  0  0  0  0  0  0  0  0
  -34.6396    3.8164  -44.0970 C   0  0  0  0  0  0  0  0  0  0  0  0
  -36.4111    2.6621  -45.6494 X   0  0  0  0  0  0  0  0  0  0  0  0
  1  2  1  0  0  0  0
  1 12  1  0  0  0  0
  1 13  1  0  0  0  0
  2  3  1  0  0  0  0
  3  4  1  0  0  0  0
  4  5  1  0  0  0  0
  4 11  1  0  0  0  0
  5  6  1  0  0  0  0
  6  7  2  0  0  0  0
  6 10  1  0  0  0  0
  7  8  1  0  0  0  0
  8  9  2  0  0  0  0
  9 10  1  0  0  0  0
 11 12  1  0  0  0  0
M  END
> <Index>
15153

> <PropertyFieldDistance>
nan

$$$$
9163552
BBcorina  12272117083D 1   1.00000     0.00000 
CORINA 4.3.0 0026  30.10.2019
 11 11  0  0  0  0  0  0  0  0999 V2000
  -37.6408    6.2490  -42.2689 C   0  0  0  0  0  0  0  0  0  0  0  0
  -36.6455    5.0944  -42.4969 C   0  0  0  0  0  0  0  0  0  0  0  0
  -36.7982    4.1046  -41.3401 C   0  0  0  0  0  0  0  0  0  0  0  0
  -37.0162    4.4057  -43.8135 C   0  0  0  0  0  0  0  0  0  0  0  0
  -35.9506    3.4545  -44.1634 N   0  0  0  0  0  0  0  0  0  0  0  0
  -34.7053    4.1911  -44.4184 C   0  0  0  0  0  0  0  0  0  0  0  0
  -34.2697    4.9178  -43.1456 C   0  0  0  0  0  0  0  0  0  0  0  0
  -33.1654    5.9242  -43.5296 C   0  0  0  0  0  0  0  0  0  0  0  0
  -33.6610    3.9109  -42.1648 C   0  0  0  0  0  0  0  0  0  0  0  0
  -35.3383    5.6332  -42.5564 O   0  0  0  0  0  0  0  0  0  0  0  0
  -36.3938    2.5104  -45.5184 X   0  0  0  0  0  0  0  0  0  0  0  0
  1  2  1  0  0  0  0
  2  3  1  0  0  0  0
  2  4  1  0  0  0  0
  2 10  1  0  0  0  0
  4  5  1  0  0  0  0
  5  6  1  0  0  0  0
  5 11  1  0  0  0  0
  6  7  1  0  0  0  0
  7  8  1  0  0  0  0
  7  9  1  0  0  0  0
  7 10  1  0  0  0  0
M  END
> <Index>
15158

> <PropertyFieldDistance>
nan

$$$$
10974910
BBcorina  12272117083D 1   1.00000     0.00000 
CORINA 4.3.0 0026  30.10.2019
 10 10  0  0  0  0  0  0  0  0999 V2000
  -38.9646    5.3530  -41.8203 O   0  0  0  0  0  0  0  0  0  0  0  0
  -37.7753    6.0850  -42.1225 C   0  0  0  0  0  0  0  0  0  0  0  0
  -36.6585    5.1099  -42.5008 C   0  0  0  0  0  0  0  0  0  0  0  0
  -37.0291    4.3869  -43.7977 C   0  0  0  0  0  0  0  0  0  0  0  0
  -35.9480    3.4664  -44.1723 N   0  0  0  0  0  0  0  0  0  0  0  0
  -34.6958    4.1916  -44.4226 C   0  0  0  0  0  0  0  0  0  0  0  0
  -34.2559    4.9088  -43.1442 C   0  0  0  0  0  0  0  0  0  0  0  0
  -35.3535    5.8833  -42.7079 C   0  0  0  0  0  0  0  0  0  0  0  0
  -35.5404    6.8758  -43.7189 O   0  0  0  0  0  0  0  0  0  0  0  0
  -36.3899    2.5211  -45.5270 X   0  0  0  0  0  0  0  0  0  0  0  0
  1  2  1  0  0  0  0
  2  3  1  0  0  0  0
  3  4  1  0  0  0  0
  3  8  1  0  0  0  0
  4  5  1  0  0  0  0
  5  6  1  0  0  0  0
  5 10  1  0  0  0  0
  6  7  1  0  0  0  0
  7  8  1  0  0  0  0
  8  9  1  0  0  0  0
M  END
> <Index>
15165

> <PropertyFieldDistance>
nan

$$$$
18186432
BBcorina  12272117083D 1   1.00000     0.00000 
CORINA 4.3.0 0026  30.10.2019
  9  9  0  0  0  0  0  0  0  0999 V2000
  -32.8483    3.9853  -41.6967 C   0  0  0  0  0  0  0  0  0  0  0  0
  -34.2985    4.1056  -41.4961 N   0  0  0  0  0  0  0  0  0  0  0  0
  -34.5999    4.8097  -40.2426 C   0  0  0  0  0  0  0  0  0  0  0  0
  -34.9348    4.7718  -42.6403 C   0  0  0  0  0  0  0  0  0  0  0  0
  -36.4674    4.8265  -42.4451 C   0  0  0  0  0  0  0  0  0  0  0  0
  -37.0084    4.5497  -43.8703 C   0  0  0  0  0  0  0  0  0  0  0  0
  -36.0599    3.5385  -44.4034 N   0  0  0  0  0  0  0  0  0  0  0  0
  -34.7221    3.9484  -43.9242 C   0  0  0  0  0  0  0  0  0  0  0  0
  -36.1109    3.4912  -46.1120 X   0  0  0  0  0  0  0  0  0  0  0  0
  1  2  1  0  0  0  0
  2  3  1  0  0  0  0
  2  4  1  0  0  0  0
  4  5  1  0  0  0  0
  4  8  1  0  0  0  0
  5  6  1  0  0  0  0
  6  7  1  0  0  0  0
  7  8  1  0  0  0  0
  7  9  1  0  0  0  0
M  END
> <Index>
15189

> <PropertyFieldDistance>
nan

$$$$
16981134
BBcorina  12272117083D 1   1.00000     0.00000 
CORINA 4.3.0 0026  30.10.2019
 10 10  0  0  0  0  0  0  0  0999 V2000
  -33.0822    5.7252  -43.6613 N   0  0  0  0  0  0  0  0  0  0  0  0
  -34.2662    4.9917  -43.1945 C   0  0  0  0  0  0  0  0  0  0  0  0
  -35.4066    5.9783  -42.9215 C   0  0  0  0  0  0  0  0  0  0  0  0
  -36.6613    5.1865  -42.5481 C   0  0  0  0  0  0  0  0  0  0  0  0
  -36.9660    4.1935  -43.6383 C   0  0  0  0  0  0  0  0  0  0  0  0
  -38.1145    3.8567  -43.8316 O   0  0  0  0  0  0  0  0  0  0  0  0
  -35.9920    3.6785  -44.4036 N   0  0  0  0  0  0  0  0  0  0  0  0
  -34.7018    4.0133  -44.2531 C   0  0  0  0  0  0  0  0  0  0  0  0
  -33.8704    3.5189  -44.9837 O   0  0  0  0  0  0  0  0  0  0  0  0
  -33.4513    6.6742  -45.0351 X   0  0  0  0  0  0  0  0  0  0  0  0
  1  2  1  0  0  0  0
  1 10  1  0  0  0  0
  2  3  1  0  0  0  0
  2  8  1  0  0  0  0
  3  4  1  0  0  0  0
  4  5  1  0  0  0  0
  5  6  2  0  0  0  0
  5  7  1  0  0  0  0
  7  8  1  0  0  0  0
  8  9  2  0  0  0  0
M  END
> <Index>
15193

> <PropertyFieldDistance>
nan

$$$$
7841020
BBcorina  12272117083D 1   1.00000     0.00000 
CORINA 4.3.0 0026  30.10.2019
 15 16  0  0  0  0  0  0  0  0999 V2000
  -37.0561    1.7273  -45.3744 C   0  0  0  0  0  0  0  0  0  0  0  0
  -35.7291    2.3593  -45.0415 C   0  0  0  0  0  0  0  0  0  0  0  0
  -34.6974    1.8070  -45.3603 O   0  0  0  0  0  0  0  0  0  0  0  0
  -35.6889    3.5382  -44.3896 N   0  0  0  0  0  0  0  0  0  0  0  0
  -36.9303    4.2481  -44.0521 C   0  0  0  0  0  0  0  0  0  0  0  0
  -36.8101    4.7396  -42.6037 C   0  0  0  0  0  0  0  0  0  0  0  0
  -35.6590    5.7414  -42.5160 C   0  0  0  0  0  0  0  0  0  0  0  0
  -35.4055    6.0664  -41.1061 N   0  0  0  0  0  0  0  0  0  0  0  0
  -34.4091    5.1633  -43.1253 C   0  0  0  0  0  0  0  0  0  0  0  0
  -33.1825    5.7036  -42.7774 C   0  0  0  0  0  0  0  0  0  0  0  0
  -32.0180    5.1969  -43.3215 C   0  0  0  0  0  0  0  0  0  0  0  0
  -32.0703    4.1463  -44.2188 C   0  0  0  0  0  0  0  0  0  0  0  0
  -33.2892    3.6007  -44.5698 C   0  0  0  0  0  0  0  0  0  0  0  0
  -34.4619    4.1080  -44.0224 C   0  0  0  0  0  0  0  0  0  0  0  0
  -34.9857    4.6653  -40.2201 X   0  0  0  0  0  0  0  0  0  0  0  0
  1  2  1  0  0  0  0
  2  3  2  0  0  0  0
  2  4  1  0  0  0  0
  4  5  1  0  0  0  0
  4 14  1  0  0  0  0
  5  6  1  0  0  0  0
  6  7  1  0  0  0  0
  7  8  1  0  0  0  0
  7  9  1  0  0  0  0
  8 15  1  0  0  0  0
  9 10  2  0  0  0  0
  9 14  1  0  0  0  0
 10 11  1  0  0  0  0
 11 12  2  0  0  0  0
 12 13  1  0  0  0  0
 13 14  2  0  0  0  0
M  END
> <Index>
15223

> <PropertyFieldDistance>
nan

$$$$
7833200
BBcorina  12272117083D 1   1.00000     0.00000 
CORINA 4.3.0 0026  30.10.2019
 13 14  0  0  0  0  0  0  0  0999 V2000
  -36.3495    2.3570  -44.9464 C   0  0  0  0  0  0  0  0  0  0  0  0
  -36.0373    3.6631  -44.3508 N   0  0  0  0  0  0  0  0  0  0  0  0
  -36.9513    3.9682  -43.2428 C   0  0  0  0  0  0  0  0  0  0  0  0
  -36.6923    5.3914  -42.7433 C   0  0  0  0  0  0  0  0  0  0  0  0
  -35.2385    5.5066  -42.2767 C   0  0  0  0  0  0  0  0  0  0  0  0
  -34.3080    5.1368  -43.4352 C   0  0  0  0  0  0  0  0  0  0  0  0
  -34.6363    3.7211  -43.9146 C   0  0  0  0  0  0  0  0  0  0  0  0
  -34.9562    6.9434  -41.8329 C   0  0  0  0  0  0  0  0  0  0  0  0
  -35.8901    7.3383  -40.6702 C   0  0  0  0  0  0  0  0  0  0  0  0
  -34.9480    7.6562  -39.4893 C   0  0  0  0  0  0  0  0  0  0  0  0
  -33.6549    8.0133  -40.1276 N   0  0  0  0  0  0  0  0  0  0  0  0
  -33.5285    7.0560  -41.2566 C   0  0  0  0  0  0  0  0  0  0  0  0
  -32.3586    7.8368  -39.0264 X   0  0  0  0  0  0  0  0  0  0  0  0
  1  2  1  0  0  0  0
  2  3  1  0  0  0  0
  2  7  1  0  0  0  0
  3  4  1  0  0  0  0
  4  5  1  0  0  0  0
  5  6  1  0  0  0  0
  5  8  1  0  0  0  0
  6  7  1  0  0  0  0
  8  9  1  0  0  0  0
  8 12  1  0  0  0  0
  9 10  1  0  0  0  0
 10 11  1  0  0  0  0
 11 12  1  0  0  0  0
 11 13  1  0  0  0  0
M  END
> <Index>
15235

> <PropertyFieldDistance>
nan

$$$$
15093600
BBcorina  12272117083D 1   1.00000     0.00000 
CORINA 4.3.0 0026  30.10.2019
 11 11  0  0  0  0  0  0  0  0999 V2000
  -31.8798    4.7860  -43.9196 C   0  0  0  0  0  0  0  0  0  0  0  0
  -32.8471    4.9088  -42.7406 C   0  0  0  0  0  0  0  0  0  0  0  0
  -32.4853    6.1419  -41.9104 C   0  0  0  0  0  0  0  0  0  0  0  0
  -34.2770    5.0496  -43.2665 C   0  0  0  0  0  0  0  0  0  0  0  0
  -35.2462    5.1675  -42.0870 C   0  0  0  0  0  0  0  0  0  0  0  0
  -36.6793    5.2476  -42.6202 C   0  0  0  0  0  0  0  0  0  0  0  0
  -36.9723    4.0087  -43.4695 C   0  0  0  0  0  0  0  0  0  0  0  0
  -36.8349    2.7538  -42.6049 C   0  0  0  0  0  0  0  0  0  0  0  0
  -36.0191    3.9414  -44.5845 N   0  0  0  0  0  0  0  0  0  0  0  0
  -34.6396    3.8164  -44.0970 C   0  0  0  0  0  0  0  0  0  0  0  0
  -36.4111    2.6622  -45.6494 X   0  0  0  0  0  0  0  0  0  0  0  0
  1  2  1  0  0  0  0
  2  3  1  0  0  0  0
  2  4  1  0  0  0  0
  4  5  1  0  0  0  0
  4 10  1  0  0  0  0
  5  6  1  0  0  0  0
  6  7  1  0  0  0  0
  7  8  1  0  0  0  0
  7  9  1  0  0  0  0
  9 10  1  0  0  0  0
  9 11  1  0  0  0  0
M  END
> <Index>
15239

> <PropertyFieldDistance>
nan

$$$$
9609030
BBcorina  12272117083D 1   1.00000     0.00000 
CORINA 4.3.0 0026  30.10.2019
 12 12  0  0  0  0  0  0  0  0999 V2000
  -37.4629    1.6903  -44.2789 N   0  0  0  0  0  0  0  0  0  0  0  0
  -36.2536    2.2280  -44.5338 C   0  0  0  0  0  0  0  0  0  0  0  0
  -35.3725    1.5421  -45.0148 O   0  0  0  0  0  0  0  0  0  0  0  0
  -36.0211    3.5260  -44.2554 N   0  0  0  0  0  0  0  0  0  0  0  0
  -37.1006    4.4030  -43.7750 C   0  0  0  0  0  0  0  0  0  0  0  0
  -36.6114    5.1263  -42.5150 C   0  0  0  0  0  0  0  0  0  0  0  0
  -35.3576    5.7554  -42.7903 O   0  0  0  0  0  0  0  0  0  0  0  0
  -34.3081    4.8463  -43.1315 C   0  0  0  0  0  0  0  0  0  0  0  0
  -33.0070    5.6228  -43.3435 C   0  0  0  0  0  0  0  0  0  0  0  0
  -32.5879    6.2322  -42.0741 N   0  0  0  0  0  0  0  0  0  0  0  0
  -34.6800    4.1081  -44.4225 C   0  0  0  0  0  0  0  0  0  0  0  0
  -31.1342    7.1116  -42.2669 X   0  0  0  0  0  0  0  0  0  0  0  0
  1  2  1  0  0  0  0
  2  3  2  0  0  0  0
  2  4  1  0  0  0  0
  4  5  1  0  0  0  0
  4 11  1  0  0  0  0
  5  6  1  0  0  0  0
  6  7  1  0  0  0  0
  7  8  1  0  0  0  0
  8  9  1  0  0  0  0
  8 11  1  0  0  0  0
  9 10  1  0  0  0  0
 10 12  1  0  0  0  0
M  END
> <Index>
15258

> <PropertyFieldDistance>
nan

$$$$
12526152
BBcorina  12272117083D 1   1.00000     0.00000 
CORINA 4.3.0 0026  30.10.2019
 13 13  0  0  0  0  0  0  0  0999 V2000
  -36.1058    6.9638  -37.3592 O   0  0  0  0  0  0  0  0  0  0  0  0
  -36.3224    8.0491  -38.2632 C   0  0  0  0  0  0  0  0  0  0  0  0
  -35.3534    7.9325  -39.4415 C   0  0  0  0  0  0  0  0  0  0  0  0
  -35.6601    6.7224  -40.2081 N   0  0  0  0  0  0  0  0  0  0  0  0
  -34.9307    6.4122  -41.2983 C   0  0  0  0  0  0  0  0  0  0  0  0
  -34.0204    7.1350  -41.6444 O   0  0  0  0  0  0  0  0  0  0  0  0
  -35.2462    5.1675  -42.0868 C   0  0  0  0  0  0  0  0  0  0  0  0
  -36.6793    5.2476  -42.6203 C   0  0  0  0  0  0  0  0  0  0  0  0
  -36.9723    4.0086  -43.4694 C   0  0  0  0  0  0  0  0  0  0  0  0
  -36.0191    3.9414  -44.5845 N   0  0  0  0  0  0  0  0  0  0  0  0
  -34.6396    3.8164  -44.0971 C   0  0  0  0  0  0  0  0  0  0  0  0
  -34.2769    5.0496  -43.2664 C   0  0  0  0  0  0  0  0  0  0  0  0
  -36.4111    2.6624  -45.6495 X   0  0  0  0  0  0  0  0  0  0  0  0
  1  2  1  0  0  0  0
  2  3  1  0  0  0  0
  3  4  1  0  0  0  0
  4  5  1  0  0  0  0
  5  6  2  0  0  0  0
  5  7  1  0  0  0  0
  7  8  1  0  0  0  0
  7 12  1  0  0  0  0
  8  9  1  0  0  0  0
  9 10  1  0  0  0  0
 10 11  1  0  0  0  0
 10 13  1  0  0  0  0
 11 12  1  0  0  0  0
M  END
> <Index>
15272

> <PropertyFieldDistance>
nan

$$$$
14249350
BBcorina  12272117083D 1   1.00000     0.00000 
CORINA 4.3.0 0026  30.10.2019
 12 12  0  0  0  0  0  0  0  0999 V2000
  -31.7171    8.3433  -40.6674 C   0  0  0  0  0  0  0  0  0  0  0  0
  -33.0655    7.6858  -40.3674 C   0  0  0  0  0  0  0  0  0  0  0  0
  -33.7623    7.3999  -41.6286 N   0  0  0  0  0  0  0  0  0  0  0  0
  -34.1262    8.6425  -42.3224 C   0  0  0  0  0  0  0  0  0  0  0  0
  -34.9452    6.5599  -41.3979 C   0  0  0  0  0  0  0  0  0  0  0  0
  -35.3535    5.8832  -42.7079 C   0  0  0  0  0  0  0  0  0  0  0  0
  -36.6585    5.1099  -42.5008 C   0  0  0  0  0  0  0  0  0  0  0  0
  -37.0290    4.3869  -43.7977 C   0  0  0  0  0  0  0  0  0  0  0  0
  -35.9480    3.4664  -44.1723 N   0  0  0  0  0  0  0  0  0  0  0  0
  -34.6958    4.1916  -44.4226 C   0  0  0  0  0  0  0  0  0  0  0  0
  -34.2560    4.9088  -43.1443 C   0  0  0  0  0  0  0  0  0  0  0  0
  -36.3899    2.5210  -45.5270 X   0  0  0  0  0  0  0  0  0  0  0  0
  1  2  1  0  0  0  0
  2  3  1  0  0  0  0
  3  4  1  0  0  0  0
  3  5  1  0  0  0  0
  5  6  1  0  0  0  0
  6  7  1  0  0  0  0
  6 11  1  0  0  0  0
  7  8  1  0  0  0  0
  8  9  1  0  0  0  0
  9 10  1  0  0  0  0
  9 12  1  0  0  0  0
 10 11  1  0  0  0  0
M  END
> <Index>
15284

> <PropertyFieldDistance>
nan

$$$$
13812046
BBcorina  12272117083D 1   1.00000     0.00000 
CORINA 4.3.0 0026  30.10.2019
 13 13  0  0  0  0  0  0  0  0999 V2000
  -34.3643    7.3084  -41.1477 C   0  0  0  0  0  0  0  0  0  0  0  0
  -35.5565    6.9866  -41.9435 N   0  0  0  0  0  0  0  0  0  0  0  0
  -35.5670    5.5682  -42.3259 C   0  0  0  0  0  0  0  0  0  0  0  0
  -36.8792    5.2418  -43.0443 C   0  0  0  0  0  0  0  0  0  0  0  0
  -36.8588    3.7790  -43.4938 C   0  0  0  0  0  0  0  0  0  0  0  0
  -35.7193    3.5579  -44.3933 N   0  0  0  0  0  0  0  0  0  0  0  0
  -34.4456    3.8196  -43.7109 C   0  0  0  0  0  0  0  0  0  0  0  0
  -34.3940    5.2835  -43.2679 C   0  0  0  0  0  0  0  0  0  0  0  0
  -35.7469    2.2005  -44.9541 C   0  0  0  0  0  0  0  0  0  0  0  0
  -37.0417    2.0015  -45.7446 C   0  0  0  0  0  0  0  0  0  0  0  0
  -35.6807    1.1779  -43.8180 C   0  0  0  0  0  0  0  0  0  0  0  0
  -34.5472    2.0082  -45.8839 C   0  0  0  0  0  0  0  0  0  0  0  0
  -36.9856    7.4054  -41.1031 X   0  0  0  0  0  0  0  0  0  0  0  0
  1  2  1  0  0  0  0
  2  3  1  0  0  0  0
  2 13  1  0  0  0  0
  3  4  1  0  0  0  0
  3  8  1  0  0  0  0
  4  5  1  0  0  0  0
  5  6  1  0  0  0  0
  6  7  1  0  0  0  0
  6  9  1  0  0  0  0
  7  8  1  0  0  0  0
  9 10  1  0  0  0  0
  9 11  1  0  0  0  0
  9 12  1  0  0  0  0
M  END
> <Index>
15300

> <PropertyFieldDistance>
nan

$$$$
11949884
BBcorina  12272117083D 1   1.00000     0.00000 
CORINA 4.3.0 0026  30.10.2019
 11 11  0  0  0  0  0  0  0  0999 V2000
  -36.3198    2.5846  -46.0344 C   0  0  0  0  0  0  0  0  0  0  0  0
  -36.1822    1.9657  -44.6420 C   0  0  0  0  0  0  0  0  0  0  0  0
  -34.9974    0.9977  -44.6290 C   0  0  0  0  0  0  0  0  0  0  0  0
  -37.4641    1.2074  -44.2920 C   0  0  0  0  0  0  0  0  0  0  0  0
  -35.9567    3.0288  -43.6537 N   0  0  0  0  0  0  0  0  0  0  0  0
  -37.0982    3.9677  -43.6157 C   0  0  0  0  0  0  0  0  0  0  0  0
  -36.4659    5.3467  -43.3024 C   0  0  0  0  0  0  0  0  0  0  0  0
  -35.1391    5.2723  -44.1031 C   0  0  0  0  0  0  0  0  0  0  0  0
  -34.7331    3.7898  -43.9660 C   0  0  0  0  0  0  0  0  0  0  0  0
  -34.1218    6.1469  -43.5048 N   0  0  0  0  0  0  0  0  0  0  0  0
  -33.8418    5.7321  -41.8696 X   0  0  0  0  0  0  0  0  0  0  0  0
  1  2  1  0  0  0  0
  2  3  1  0  0  0  0
  2  4  1  0  0  0  0
  2  5  1  0  0  0  0
  5  6  1  0  0  0  0
  5  9  1  0  0  0  0
  6  7  1  0  0  0  0
  7  8  1  0  0  0  0
  8  9  1  0  0  0  0
  8 10  1  0  0  0  0
 10 11  1  0  0  0  0
M  END
> <Index>
15301

> <PropertyFieldDistance>
nan

$$$$
10863196
BBcorina  12272117083D 1   1.00000     0.00000 
CORINA 4.3.0 0026  30.10.2019
 11 11  0  0  0  0  0  0  0  0999 V2000
  -36.9213    1.7567  -45.6240 C   0  0  0  0  0  0  0  0  0  0  0  0
  -35.7056    2.6405  -45.3379 C   0  0  0  0  0  0  0  0  0  0  0  0
  -34.4280    1.8090  -45.4701 C   0  0  0  0  0  0  0  0  0  0  0  0
  -35.8010    3.1781  -43.9741 N   0  0  0  0  0  0  0  0  0  0  0  0
  -37.0362    3.9723  -43.8029 C   0  0  0  0  0  0  0  0  0  0  0  0
  -36.6480    5.0989  -42.8131 C   0  0  0  0  0  0  0  0  0  0  0  0
  -35.1964    5.4193  -43.2566 C   0  0  0  0  0  0  0  0  0  0  0  0
  -34.6438    4.0367  -43.6623 C   0  0  0  0  0  0  0  0  0  0  0  0
  -34.4239    5.9801  -42.1400 N   0  0  0  0  0  0  0  0  0  0  0  0
  -34.8674    7.3448  -41.8260 C   0  0  0  0  0  0  0  0  0  0  0  0
  -34.5192    4.9724  -40.7617 X   0  0  0  0  0  0  0  0  0  0  0  0
  1  2  1  0  0  0  0
  2  3  1  0  0  0  0
  2  4  1  0  0  0  0
  4  5  1  0  0  0  0
  4  8  1  0  0  0  0
  5  6  1  0  0  0  0
  6  7  1  0  0  0  0
  7  8  1  0  0  0  0
  7  9  1  0  0  0  0
  9 10  1  0  0  0  0
  9 11  1  0  0  0  0
M  END
> <Index>
15302

> <PropertyFieldDistance>
nan

$$$$
10860964
BBcorina  12272117083D 1   1.00000     0.00000 
CORINA 4.3.0 0026  30.10.2019
 14 14  0  0  0  0  0  0  0  0999 V2000
  -33.9429    7.8858  -42.9264 C   0  0  0  0  0  0  0  0  0  0  0  0
  -35.0862    7.1189  -42.4138 N   0  0  0  0  0  0  0  0  0  0  0  0
  -35.4418    6.0277  -43.3307 C   0  0  0  0  0  0  0  0  0  0  0  0
  -36.7095    5.3305  -42.8292 C   0  0  0  0  0  0  0  0  0  0  0  0
  -37.0403    4.1570  -43.7542 C   0  0  0  0  0  0  0  0  0  0  0  0
  -35.9153    3.2133  -43.7714 N   0  0  0  0  0  0  0  0  0  0  0  0
  -36.2517    2.0070  -44.5393 C   0  0  0  0  0  0  0  0  0  0  0  0
  -36.1729    2.3166  -46.0357 C   0  0  0  0  0  0  0  0  0  0  0  0
  -34.8460    2.5874  -46.3866 F   0  0  0  0  0  0  0  0  0  0  0  0
  -36.6325    1.2145  -46.7646 F   0  0  0  0  0  0  0  0  0  0  0  0
  -36.9683    3.4309  -46.3239 F   0  0  0  0  0  0  0  0  0  0  0  0
  -34.6983    3.8476  -44.2940 C   0  0  0  0  0  0  0  0  0  0  0  0
  -34.2975    5.0118  -43.3851 C   0  0  0  0  0  0  0  0  0  0  0  0
  -34.7685    6.5209  -40.8435 X   0  0  0  0  0  0  0  0  0  0  0  0
  1  2  1  0  0  0  0
  2  3  1  0  0  0  0
  2 14  1  0  0  0  0
  3  4  1  0  0  0  0
  3 13  1  0  0  0  0
  4  5  1  0  0  0  0
  5  6  1  0  0  0  0
  6  7  1  0  0  0  0
  6 12  1  0  0  0  0
  7  8  1  0  0  0  0
  8  9  1  0  0  0  0
  8 10  1  0  0  0  0
  8 11  1  0  0  0  0
 12 13  1  0  0  0  0
M  END
> <Index>
15305

> <PropertyFieldDistance>
nan

$$$$
11734490
BBcorina  12272117083D 1   1.00000     0.00000 
CORINA 4.3.0 0026  30.10.2019
  8  8  0  0  0  0  0  0  0  0999 V2000
  -32.9415    4.9179  -42.7753 O   0  0  0  0  0  0  0  0  0  0  0  0
  -34.2770    5.0496  -43.2665 C   0  0  0  0  0  0  0  0  0  0  0  0
  -35.2461    5.1685  -42.0869 C   0  0  0  0  0  0  0  0  0  0  0  0
  -36.6793    5.2476  -42.6202 C   0  0  0  0  0  0  0  0  0  0  0  0
  -36.9723    4.0086  -43.4695 C   0  0  0  0  0  0  0  0  0  0  0  0
  -36.0192    3.9414  -44.5845 N   0  0  0  0  0  0  0  0  0  0  0  0
  -34.6396    3.8164  -44.0970 C   0  0  0  0  0  0  0  0  0  0  0  0
  -36.4110    2.6622  -45.6495 X   0  0  0  0  0  0  0  0  0  0  0  0
  1  2  1  0  0  0  0
  2  3  1  0  0  0  0
  2  7  1  0  0  0  0
  3  4  1  0  0  0  0
  4  5  1  0  0  0  0
  5  6  1  0  0  0  0
  6  7  1  0  0  0  0
  6  8  1  0  0  0  0
M  END
> <Index>
15308

> <PropertyFieldDistance>
nan

$$$$
15262846
BBcorina  12272117083D 1   1.00000     0.00000 
CORINA 4.3.0 0026  30.10.2019
 11 11  0  0  0  0  0  0  0  0999 V2000
  -37.2721   -1.3974  -49.2257 C   0  0  0  0  0  0  0  0  0  0  0  0
  -37.1394   -0.1889  -48.2969 C   0  0  0  0  0  0  0  0  0  0  0  0
  -36.9827    1.0814  -49.1545 C   0  0  0  0  0  0  0  0  0  0  0  0
  -36.4191    2.2740  -48.3584 C   0  0  0  0  0  0  0  0  0  0  0  0
  -37.0234    2.3865  -46.9849 C   0  0  0  0  0  0  0  0  0  0  0  0
  -36.1059    1.6538  -45.9847 C   0  0  0  0  0  0  0  0  0  0  0  0
  -36.3933    2.1751  -44.5753 C   0  0  0  0  0  0  0  0  0  0  0  0
  -36.0173    3.5927  -44.4913 N   0  0  0  0  0  0  0  0  0  0  0  0
  -36.3040    0.2121  -46.0035 C   0  0  0  0  0  0  0  0  0  0  0  0
  -35.9705   -0.4093  -47.3753 C   0  0  0  0  0  0  0  0  0  0  0  0
  -36.3230    4.2162  -42.9287 X   0  0  0  0  0  0  0  0  0  0  0  0
  1  2  1  0  0  0  0
  2  3  1  0  0  0  0
  2 10  1  0  0  0  0
  3  4  1  0  0  0  0
  4  5  1  0  0  0  0
  5  6  1  0  0  0  0
  6  7  1  0  0  0  0
  6  9  1  0  0  0  0
  7  8  1  0  0  0  0
  8 11  1  0  0  0  0
  9 10  1  0  0  0  0
M  END
> <Index>
15323

> <PropertyFieldDistance>
nan

$$$$
15720614
BBcorina  12272117083D 1   1.00000     0.00000 
CORINA 4.3.0 0026  30.10.2019
 12 12  0  0  0  0  0  0  0  0999 V2000
  -34.2567   -1.0903  -50.2806 C   0  0  0  0  0  0  0  0  0  0  0  0
  -35.5985   -1.0417  -49.5469 C   0  0  0  0  0  0  0  0  0  0  0  0
  -35.4667   -0.1643  -48.3005 C   0  0  0  0  0  0  0  0  0  0  0  0
  -35.2082    1.2615  -48.7063 C   0  0  0  0  0  0  0  0  0  0  0  0
  -34.2910    2.0008  -47.7144 C   0  0  0  0  0  0  0  0  0  0  0  0
  -34.6240    1.6865  -46.2433 C   0  0  0  0  0  0  0  0  0  0  0  0
  -36.1059    1.6538  -45.9847 C   0  0  0  0  0  0  0  0  0  0  0  0
  -36.3933    2.1752  -44.5752 C   0  0  0  0  0  0  0  0  0  0  0  0
  -36.0173    3.5927  -44.4913 N   0  0  0  0  0  0  0  0  0  0  0  0
  -36.5923    0.1953  -46.1068 C   0  0  0  0  0  0  0  0  0  0  0  0
  -36.7789   -0.2132  -47.4913 C   0  0  0  0  0  0  0  0  0  0  0  0
  -36.3229    4.2162  -42.9286 X   0  0  0  0  0  0  0  0  0  0  0  0
  1  2  1  0  0  0  0
  2  3  1  0  0  0  0
  3  4  1  0  0  0  0
  3 11  1  0  0  0  0
  4  5  1  0  0  0  0
  5  6  1  0  0  0  0
  6  7  1  0  0  0  0
  7  8  1  0  0  0  0
  7 10  1  0  0  0  0
  8  9  1  0  0  0  0
  9 12  1  0  0  0  0
 10 11  1  0  0  0  0
M  END
> <Index>
15324

> <PropertyFieldDistance>
nan

$$$$
8901422
BBcorina  12272117083D 1   1.00000     0.00000 
CORINA 4.3.0 0026  30.10.2019
 12 12  0  0  0  0  0  0  0  0999 V2000
  -37.2655    5.5394  -44.9968 C   0  0  0  0  0  0  0  0  0  0  0  0
  -37.0598    4.0291  -45.1303 C   0  0  0  0  0  0  0  0  0  0  0  0
  -38.4188    3.3264  -45.1185 C   0  0  0  0  0  0  0  0  0  0  0  0
  -36.2144    3.5241  -43.9594 C   0  0  0  0  0  0  0  0  0  0  0  0
  -34.8391    4.2214  -43.9989 C   0  0  0  0  0  0  0  0  0  0  0  0
  -34.2209    4.1374  -42.6296 C   0  0  0  0  0  0  0  0  0  0  0  0
  -33.2822    2.9249  -42.4799 C   0  0  0  0  0  0  0  0  0  0  0  0
  -33.8490    1.6470  -43.1273 C   0  0  0  0  0  0  0  0  0  0  0  0
  -35.3203    1.4722  -42.8644 C   0  0  0  0  0  0  0  0  0  0  0  0
  -36.1045    2.0755  -44.0476 C   0  0  0  0  0  0  0  0  0  0  0  0
  -33.1291    0.4836  -42.5923 N   0  0  0  0  0  0  0  0  0  0  0  0
  -33.4662    0.2656  -40.9301 X   0  0  0  0  0  0  0  0  0  0  0  0
  1  2  1  0  0  0  0
  2  3  1  0  0  0  0
  2  4  1  0  0  0  0
  4  5  1  0  0  0  0
  4 10  1  0  0  0  0
  5  6  1  0  0  0  0
  6  7  1  0  0  0  0
  7  8  1  0  0  0  0
  8  9  1  0  0  0  0
  8 11  1  0  0  0  0
  9 10  1  0  0  0  0
 11 12  1  0  0  0  0
M  END
> <Index>
15325

> <PropertyFieldDistance>
nan

$$$$
11950476
BBcorina  12272117083D 1   1.00000     0.00000 
CORINA 4.3.0 0026  30.10.2019
 11 12  0  0  0  0  0  0  0  0999 V2000
  -36.7959    6.5150  -43.4744 C   0  0  0  0  0  0  0  0  0  0  0  0
  -36.6291    5.2500  -42.6302 C   0  0  0  0  0  0  0  0  0  0  0  0
  -36.9729    4.0215  -43.4766 C   0  0  0  0  0  0  0  0  0  0  0  0
  -36.0215    3.9202  -44.5929 N   0  0  0  0  0  0  0  0  0  0  0  0
  -34.6417    3.8204  -44.0951 C   0  0  0  0  0  0  0  0  0  0  0  0
  -34.3221    5.0516  -43.2430 C   0  0  0  0  0  0  0  0  0  0  0  0
  -35.2749    5.1506  -42.1811 O   0  0  0  0  0  0  0  0  0  0  0  0
  -37.5648    5.3155  -41.4213 C   0  0  0  0  0  0  0  0  0  0  0  0
  -37.4569    6.5399  -40.5102 C   0  0  0  0  0  0  0  0  0  0  0  0
  -38.6645    6.3792  -41.4360 C   0  0  0  0  0  0  0  0  0  0  0  0
  -36.4044    2.5971  -45.6062 X   0  0  0  0  0  0  0  0  0  0  0  0
  1  2  1  0  0  0  0
  2  3  1  0  0  0  0
  2  7  1  0  0  0  0
  2  8  1  0  0  0  0
  3  4  1  0  0  0  0
  4  5  1  0  0  0  0
  4 11  1  0  0  0  0
  5  6  1  0  0  0  0
  6  7  1  0  0  0  0
  8  9  1  0  0  0  0
  8 10  1  0  0  0  0
  9 10  1  0  0  0  0
M  END
> <Index>
15330

> <PropertyFieldDistance>
nan

$$$$
12346710
BBcorina  12272117083D 1   1.00000     0.00000 
CORINA 4.3.0 0026  30.10.2019
 11 11  0  0  0  0  0  0  0  0999 V2000
  -38.2345    7.8046  -40.5043 C   0  0  0  0  0  0  0  0  0  0  0  0
  -37.2956    6.8212  -40.9440 O   0  0  0  0  0  0  0  0  0  0  0  0
  -37.6835    6.1407  -42.1391 C   0  0  0  0  0  0  0  0  0  0  0  0
  -36.6101    5.1169  -42.5144 C   0  0  0  0  0  0  0  0  0  0  0  0
  -36.4491    4.1044  -41.3787 C   0  0  0  0  0  0  0  0  0  0  0  0
  -37.0250    4.3873  -43.7948 C   0  0  0  0  0  0  0  0  0  0  0  0
  -35.9555    3.4605  -44.1931 N   0  0  0  0  0  0  0  0  0  0  0  0
  -34.6941    4.1836  -44.4110 C   0  0  0  0  0  0  0  0  0  0  0  0
  -34.3026    4.9152  -43.1244 C   0  0  0  0  0  0  0  0  0  0  0  0
  -35.3668    5.7881  -42.7357 O   0  0  0  0  0  0  0  0  0  0  0  0
  -36.4010    2.5722  -45.5846 X   0  0  0  0  0  0  0  0  0  0  0  0
  1  2  1  0  0  0  0
  2  3  1  0  0  0  0
  3  4  1  0  0  0  0
  4  5  1  0  0  0  0
  4  6  1  0  0  0  0
  4 10  1  0  0  0  0
  6  7  1  0  0  0  0
  7  8  1  0  0  0  0
  7 11  1  0  0  0  0
  8  9  1  0  0  0  0
  9 10  1  0  0  0  0
M  END
> <Index>
15332

> <PropertyFieldDistance>
nan

$$$$
11620030
BBcorina  12272117083D 1   1.00000     0.00000 
CORINA 4.3.0 0026  30.10.2019
 11 12  0  0  0  0  0  0  0  0999 V2000
  -37.5861    5.3483  -41.4421 C   0  0  0  0  0  0  0  0  0  0  0  0
  -36.6390    5.2676  -42.6410 C   0  0  0  0  0  0  0  0  0  0  0  0
  -36.9555    4.0132  -43.4590 C   0  0  0  0  0  0  0  0  0  0  0  0
  -36.0242    3.9176  -44.5920 N   0  0  0  0  0  0  0  0  0  0  0  0
  -34.6342    3.8292  -44.1167 C   0  0  0  0  0  0  0  0  0  0  0  0
  -34.3344    5.0361  -43.2291 C   0  0  0  0  0  0  0  0  0  0  0  0
  -32.8774    5.1013  -42.7547 C   0  0  0  0  0  0  0  0  0  0  0  0
  -32.9519    6.6188  -42.9971 C   0  0  0  0  0  0  0  0  0  0  0  0
  -34.0640    6.3234  -44.0183 C   0  0  0  0  0  0  0  0  0  0  0  0
  -35.2859    5.2007  -42.1777 O   0  0  0  0  0  0  0  0  0  0  0  0
  -36.4143    2.5892  -45.5956 X   0  0  0  0  0  0  0  0  0  0  0  0
  1  2  1  0  0  0  0
  2  3  1  0  0  0  0
  2 10  1  0  0  0  0
  3  4  1  0  0  0  0
  4  5  1  0  0  0  0
  4 11  1  0  0  0  0
  5  6  1  0  0  0  0
  6  7  1  0  0  0  0
  6  9  1  0  0  0  0
  6 10  1  0  0  0  0
  7  8  1  0  0  0  0
  8  9  1  0  0  0  0
M  END
> <Index>
15336

> <PropertyFieldDistance>
nan

$$$$
9173854
BBcorina  12272117083D 1   1.00000     0.00000 
CORINA 4.3.0 0026  30.10.2019
  9  9  0  0  0  0  0  0  0  0999 V2000
  -34.0170    3.8796  -42.0376 C   0  0  0  0  0  0  0  0  0  0  0  0
  -34.2559    4.9088  -43.1443 C   0  0  0  0  0  0  0  0  0  0  0  0
  -32.9630    5.6820  -43.4117 C   0  0  0  0  0  0  0  0  0  0  0  0
  -35.3534    5.8832  -42.7080 C   0  0  0  0  0  0  0  0  0  0  0  0
  -36.6587    5.1099  -42.5007 C   0  0  0  0  0  0  0  0  0  0  0  0
  -37.0290    4.3869  -43.7977 C   0  0  0  0  0  0  0  0  0  0  0  0
  -35.9480    3.4664  -44.1723 N   0  0  0  0  0  0  0  0  0  0  0  0
  -34.6958    4.1916  -44.4226 C   0  0  0  0  0  0  0  0  0  0  0  0
  -36.3899    2.5210  -45.5270 X   0  0  0  0  0  0  0  0  0  0  0  0
  1  2  1  0  0  0  0
  2  3  1  0  0  0  0
  2  4  1  0  0  0  0
  2  8  1  0  0  0  0
  4  5  1  0  0  0  0
  5  6  1  0  0  0  0
  6  7  1  0  0  0  0
  7  8  1  0  0  0  0
  7  9  1  0  0  0  0
M  END
> <Index>
15360

> <PropertyFieldDistance>
nan

$$$$
9450646
BBcorina  12272117083D 1   1.00000     0.00000 
CORINA 4.3.0 0026  30.10.2019
 15 16  0  0  0  0  0  0  0  0999 V2000
  -33.6219    6.9961  -41.2898 C   0  0  0  0  0  0  0  0  0  0  0  0
  -34.9723    6.8746  -41.8552 N   0  0  0  0  0  0  0  0  0  0  0  0
  -35.2424    5.4950  -42.2816 C   0  0  0  0  0  0  0  0  0  0  0  0
  -36.6961    5.3790  -42.7485 C   0  0  0  0  0  0  0  0  0  0  0  0
  -36.9541    3.9558  -43.2484 C   0  0  0  0  0  0  0  0  0  0  0  0
  -36.0398    3.6513  -44.3562 N   0  0  0  0  0  0  0  0  0  0  0  0
  -34.6388    3.7101  -43.9198 C   0  0  0  0  0  0  0  0  0  0  0  0
  -34.3115    5.1260  -43.4401 C   0  0  0  0  0  0  0  0  0  0  0  0
  -36.3344    2.4154  -44.9201 C   0  0  0  0  0  0  0  0  0  0  0  0
  -35.5807    1.9383  -45.9900 C   0  0  0  0  0  0  0  0  0  0  0  0
  -35.8610    0.7626  -46.5192 N   0  0  0  0  0  0  0  0  0  0  0  0
  -36.8623    0.0425  -46.0421 C   0  0  0  0  0  0  0  0  0  0  0  0
  -37.6120    0.5122  -44.9804 C   0  0  0  0  0  0  0  0  0  0  0  0
  -37.3346    1.6871  -44.4410 N   0  0  0  0  0  0  0  0  0  0  0  0
  -36.1534    7.4144  -40.7427 X   0  0  0  0  0  0  0  0  0  0  0  0
  1  2  1  0  0  0  0
  2  3  1  0  0  0  0
  2 15  1  0  0  0  0
  3  4  1  0  0  0  0
  3  8  1  0  0  0  0
  4  5  1  0  0  0  0
  5  6  1  0  0  0  0
  6  7  1  0  0  0  0
  6  9  1  0  0  0  0
  7  8  1  0  0  0  0
  9 10  2  0  0  0  0
  9 14  1  0  0  0  0
 10 11  1  0  0  0  0
 11 12  2  0  0  0  0
 12 13  1  0  0  0  0
 13 14  2  0  0  0  0
M  END
> <Index>
15367

> <PropertyFieldDistance>
nan

$$$$
16524090
BBcorina  12272117083D 1   1.00000     0.00000 
CORINA 4.3.0 0026  30.10.2019
  9  9  0  0  0  0  0  0  0  0999 V2000
  -32.8483    3.9853  -41.6967 C   0  0  0  0  0  0  0  0  0  0  0  0
  -34.2985    4.1056  -41.4961 N   0  0  0  0  0  0  0  0  0  0  0  0
  -34.5999    4.8097  -40.2426 C   0  0  0  0  0  0  0  0  0  0  0  0
  -34.9348    4.7718  -42.6403 C   0  0  0  0  0  0  0  0  0  0  0  0
  -36.4674    4.8265  -42.4451 C   0  0  0  0  0  0  0  0  0  0  0  0
  -37.0084    4.5497  -43.8703 C   0  0  0  0  0  0  0  0  0  0  0  0
  -36.0599    3.5385  -44.4034 N   0  0  0  0  0  0  0  0  0  0  0  0
  -34.7221    3.9484  -43.9242 C   0  0  0  0  0  0  0  0  0  0  0  0
  -36.1109    3.4912  -46.1120 X   0  0  0  0  0  0  0  0  0  0  0  0
  1  2  1  0  0  0  0
  2  3  1  0  0  0  0
  2  4  1  0  0  0  0
  4  5  1  0  0  0  0
  4  8  1  0  0  0  0
  5  6  1  0  0  0  0
  6  7  1  0  0  0  0
  7  8  1  0  0  0  0
  7  9  1  0  0  0  0
M  END
> <Index>
15413

> <PropertyFieldDistance>
nan

$$$$
14044186
BBcorina  12272117083D 1   1.00000     0.00000 
CORINA 4.3.0 0026  30.10.2019
 10 10  0  0  0  0  0  0  0  0999 V2000
  -34.3454    3.7937  -42.0532 N   0  0  0  0  0  0  0  0  0  0  0  0
  -34.0521    4.7137  -43.1603 C   0  0  0  0  0  0  0  0  0  0  0  0
  -34.6145    6.1006  -42.8392 C   0  0  0  0  0  0  0  0  0  0  0  0
  -35.9119    5.9875  -42.0595 C   0  0  0  0  0  0  0  0  0  0  0  0
  -37.0545    5.3839  -42.8555 C   0  0  0  0  0  0  0  0  0  0  0  0
  -36.7787    3.9136  -43.1761 C   0  0  0  0  0  0  0  0  0  0  0  0
  -35.9918    3.8420  -44.4180 N   0  0  0  0  0  0  0  0  0  0  0  0
  -34.7101    4.2104  -44.4278 C   0  0  0  0  0  0  0  0  0  0  0  0
  -34.0694    4.1421  -45.4554 O   0  0  0  0  0  0  0  0  0  0  0  0
  -34.3609    2.1711  -42.5924 X   0  0  0  0  0  0  0  0  0  0  0  0
  1  2  1  0  0  0  0
  1 10  1  0  0  0  0
  2  3  1  0  0  0  0
  2  8  1  0  0  0  0
  3  4  1  0  0  0  0
  4  5  1  0  0  0  0
  5  6  1  0  0  0  0
  6  7  1  0  0  0  0
  7  8  1  0  0  0  0
  8  9  2  0  0  0  0
M  END
> <Index>
15421

> <PropertyFieldDistance>
nan

$$$$
8992170
BBcorina  12272117083D 1   1.00000     0.00000 
CORINA 4.3.0 0026  30.10.2019
  9  9  0  0  0  0  0  0  0  0999 V2000
  -33.8635    2.3087  -45.3358 O   0  0  0  0  0  0  0  0  0  0  0  0
  -34.5324    2.7696  -44.1600 C   0  0  0  0  0  0  0  0  0  0  0  0
  -34.5532    4.2994  -44.1516 C   0  0  0  0  0  0  0  0  0  0  0  0
  -35.2693    4.7928  -42.8928 C   0  0  0  0  0  0  0  0  0  0  0  0
  -36.7047    4.2633  -42.8820 C   0  0  0  0  0  0  0  0  0  0  0  0
  -36.6839    2.7334  -42.8904 C   0  0  0  0  0  0  0  0  0  0  0  0
  -35.9678    2.2400  -44.1492 C   0  0  0  0  0  0  0  0  0  0  0  0
  -35.9479    0.7712  -44.1573 N   0  0  0  0  0  0  0  0  0  0  0  0
  -35.8447    0.1685  -45.7542 X   0  0  0  0  0  0  0  0  0  0  0  0
  1  2  1  0  0  0  0
  2  3  1  0  0  0  0
  2  7  1  0  0  0  0
  3  4  1  0  0  0  0
  4  5  1  0  0  0  0
  5  6  1  0  0  0  0
  6  7  1  0  0  0  0
  7  8  1  0  0  0  0
  8  9  1  0  0  0  0
M  END
> <Index>
15429

> <PropertyFieldDistance>
nan

$$$$
7348488
BBcorina  12272117083D 1   1.00000     0.00000 
CORINA 4.3.0 0026  30.10.2019
  9  9  0  0  0  0  0  0  0  0999 V2000
  -37.3190    6.5207  -40.6937 O   0  0  0  0  0  0  0  0  0  0  0  0
  -37.5651    5.3158  -41.4217 C   0  0  0  0  0  0  0  0  0  0  0  0
  -36.6293    5.2502  -42.6303 C   0  0  0  0  0  0  0  0  0  0  0  0
  -36.9724    4.0211  -43.4763 C   0  0  0  0  0  0  0  0  0  0  0  0
  -36.0215    3.9204  -44.5930 N   0  0  0  0  0  0  0  0  0  0  0  0
  -34.6419    3.8204  -44.0951 C   0  0  0  0  0  0  0  0  0  0  0  0
  -34.3222    5.0514  -43.2430 C   0  0  0  0  0  0  0  0  0  0  0  0
  -35.2752    5.1507  -42.1812 O   0  0  0  0  0  0  0  0  0  0  0  0
  -36.4046    2.5974  -45.6065 X   0  0  0  0  0  0  0  0  0  0  0  0
  1  2  1  0  0  0  0
  2  3  1  0  0  0  0
  3  4  1  0  0  0  0
  3  8  1  0  0  0  0
  4  5  1  0  0  0  0
  5  6  1  0  0  0  0
  5  9  1  0  0  0  0
  6  7  1  0  0  0  0
  7  8  1  0  0  0  0
M  END
> <Index>
15434

> <PropertyFieldDistance>
nan

$$$$
9449168
BBcorina  12272117083D 1   1.00000     0.00000 
CORINA 4.3.0 0026  30.10.2019
  8  8  0  0  0  0  0  0  0  0999 V2000
  -32.9415    4.9179  -42.7753 O   0  0  0  0  0  0  0  0  0  0  0  0
  -34.2770    5.0496  -43.2665 C   0  0  0  0  0  0  0  0  0  0  0  0
  -35.2461    5.1685  -42.0869 C   0  0  0  0  0  0  0  0  0  0  0  0
  -36.6793    5.2476  -42.6202 C   0  0  0  0  0  0  0  0  0  0  0  0
  -36.9723    4.0086  -43.4695 C   0  0  0  0  0  0  0  0  0  0  0  0
  -36.0192    3.9414  -44.5845 N   0  0  0  0  0  0  0  0  0  0  0  0
  -34.6396    3.8164  -44.0970 C   0  0  0  0  0  0  0  0  0  0  0  0
  -36.4110    2.6622  -45.6495 X   0  0  0  0  0  0  0  0  0  0  0  0
  1  2  1  0  0  0  0
  2  3  1  0  0  0  0
  2  7  1  0  0  0  0
  3  4  1  0  0  0  0
  4  5  1  0  0  0  0
  5  6  1  0  0  0  0
  6  7  1  0  0  0  0
  6  8  1  0  0  0  0
M  END
> <Index>
15435

> <PropertyFieldDistance>
nan

$$$$
10153842
BBcorina  12272117083D 1   1.00000     0.00000 
CORINA 4.3.0 0026  30.10.2019
 10 11  0  0  0  0  0  0  0  0999 V2000
  -36.0177    3.9536  -44.5800 N   0  0  0  0  0  0  0  0  0  0  0  0
  -36.9732    4.0014  -43.4661 C   0  0  0  0  0  0  0  0  0  0  0  0
  -36.7032    5.2468  -42.6156 C   0  0  0  0  0  0  0  0  0  0  0  0
  -35.2544    5.2160  -42.1311 C   0  0  0  0  0  0  0  0  0  0  0  0
  -34.9043    6.3564  -41.1678 C   0  0  0  0  0  0  0  0  0  0  0  0
  -34.0926    5.3223  -40.3684 C   0  0  0  0  0  0  0  0  0  0  0  0
  -35.0181    4.2479  -40.9653 C   0  0  0  0  0  0  0  0  0  0  0  0
  -34.2554    5.0489  -43.2778 C   0  0  0  0  0  0  0  0  0  0  0  0
  -34.6379    3.8129  -44.0982 C   0  0  0  0  0  0  0  0  0  0  0  0
  -36.4151    2.7019  -45.6751 X   0  0  0  0  0  0  0  0  0  0  0  0
  1  2  1  0  0  0  0
  1  9  1  0  0  0  0
  1 10  1  0  0  0  0
  2  3  1  0  0  0  0
  3  4  1  0  0  0  0
  4  5  1  0  0  0  0
  4  7  1  0  0  0  0
  4  8  1  0  0  0  0
  5  6  1  0  0  0  0
  6  7  1  0  0  0  0
  8  9  1  0  0  0  0
M  END
> <Index>
15439

> <PropertyFieldDistance>
nan

$$$$
12524466
BBcorina  12272117083D 1   1.00000     0.00000 
CORINA 4.3.0 0026  30.10.2019
 11 11  0  0  0  0  0  0  0  0999 V2000
  -33.1835    6.6241  -44.4222 F   0  0  0  0  0  0  0  0  0  0  0  0
  -32.9630    5.6821  -43.4117 C   0  0  0  0  0  0  0  0  0  0  0  0
  -32.5614    6.3373  -42.2427 F   0  0  0  0  0  0  0  0  0  0  0  0
  -31.9619    4.7917  -43.8145 F   0  0  0  0  0  0  0  0  0  0  0  0
  -34.2558    4.9088  -43.1443 C   0  0  0  0  0  0  0  0  0  0  0  0
  -35.3534    5.8832  -42.7080 C   0  0  0  0  0  0  0  0  0  0  0  0
  -36.6587    5.1099  -42.5008 C   0  0  0  0  0  0  0  0  0  0  0  0
  -37.0290    4.3869  -43.7977 C   0  0  0  0  0  0  0  0  0  0  0  0
  -35.9480    3.4665  -44.1722 N   0  0  0  0  0  0  0  0  0  0  0  0
  -34.6958    4.1916  -44.4227 C   0  0  0  0  0  0  0  0  0  0  0  0
  -36.3902    2.5211  -45.5268 X   0  0  0  0  0  0  0  0  0  0  0  0
  1  2  1  0  0  0  0
  2  3  1  0  0  0  0
  2  4  1  0  0  0  0
  2  5  1  0  0  0  0
  5  6  1  0  0  0  0
  5 10  1  0  0  0  0
  6  7  1  0  0  0  0
  7  8  1  0  0  0  0
  8  9  1  0  0  0  0
  9 10  1  0  0  0  0
  9 11  1  0  0  0  0
M  END
> <Index>
15451

> <PropertyFieldDistance>
nan

$$$$
101986
BBcorina  12272117083D 1   1.00000     0.00000 
CORINA 4.3.0 0026  30.10.2019
 13 13  0  0  0  0  0  0  0  0999 V2000
  -35.2725    0.4492  -47.9034 C   0  0  0  0  0  0  0  0  0  0  0  0
  -35.9758    0.7485  -46.6536 N   0  0  0  0  0  0  0  0  0  0  0  0
  -36.8831   -0.2418  -46.0683 C   0  0  0  0  0  0  0  0  0  0  0  0
  -35.7881    1.9349  -46.0422 C   0  0  0  0  0  0  0  0  0  0  0  0
  -35.0370    2.7546  -46.5267 O   0  0  0  0  0  0  0  0  0  0  0  0
  -36.5115    2.2427  -44.7565 C   0  0  0  0  0  0  0  0  0  0  0  0
  -36.1399    3.5871  -44.2955 N   0  0  0  0  0  0  0  0  0  0  0  0
  -36.9965    4.0172  -43.1815 C   0  0  0  0  0  0  0  0  0  0  0  0
  -36.6309    5.4493  -42.7840 C   0  0  0  0  0  0  0  0  0  0  0  0
  -35.2122    5.5026  -42.4046 N   0  0  0  0  0  0  0  0  0  0  0  0
  -34.3556    5.0724  -43.5184 C   0  0  0  0  0  0  0  0  0  0  0  0
  -34.7212    3.6403  -43.9160 C   0  0  0  0  0  0  0  0  0  0  0  0
  -34.7797    7.0674  -41.8678 X   0  0  0  0  0  0  0  0  0  0  0  0
  1  2  1  0  0  0  0
  2  3  1  0  0  0  0
  2  4  1  0  0  0  0
  4  5  2  0  0  0  0
  4  6  1  0  0  0  0
  6  7  1  0  0  0  0
  7  8  1  0  0  0  0
  7 12  1  0  0  0  0
  8  9  1  0  0  0  0
  9 10  1  0  0  0  0
 10 11  1  0  0  0  0
 10 13  1  0  0  0  0
 11 12  1  0  0  0  0
M  END
> <Index>
15463

> <PropertyFieldDistance>
nan

$$$$
12213908
BBcorina  12272117083D 1   1.00000     0.00000 
CORINA 4.3.0 0026  30.10.2019
 11 13  0  0  0  0  0  0  0  0999 V2000
  -35.9669    3.7409  -44.4249 N   0  0  0  0  0  0  0  0  0  0  0  0
  -36.9558    4.6915  -43.8459 C   0  0  0  0  0  0  0  0  0  0  0  0
  -36.7899    4.5334  -42.3182 C   0  0  0  0  0  0  0  0  0  0  0  0
  -35.3558    4.0010  -42.1222 C   0  0  0  0  0  0  0  0  0  0  0  0
  -34.7748    3.8804  -43.5485 C   0  0  0  0  0  0  0  0  0  0  0  0
  -34.0999    5.2174  -43.9001 C   0  0  0  0  0  0  0  0  0  0  0  0
  -35.1074    6.3454  -43.6441 C   0  0  0  0  0  0  0  0  0  0  0  0
  -34.5767    7.7782  -43.6254 C   0  0  0  0  0  0  0  0  0  0  0  0
  -35.0048    7.1014  -42.3210 C   0  0  0  0  0  0  0  0  0  0  0  0
  -36.5060    6.1124  -44.2272 C   0  0  0  0  0  0  0  0  0  0  0  0
  -35.5916    4.1568  -46.0406 X   0  0  0  0  0  0  0  0  0  0  0  0
  1  2  1  0  0  0  0
  1  5  1  0  0  0  0
  1 11  1  0  0  0  0
  2  3  1  0  0  0  0
  2 10  1  0  0  0  0
  3  4  1  0  0  0  0
  4  5  1  0  0  0  0
  5  6  1  0  0  0  0
  6  7  1  0  0  0  0
  7  8  1  0  0  0  0
  7  9  1  0  0  0  0
  7 10  1  0  0  0  0
  8  9  1  0  0  0  0
M  END
> <Index>
15465

> <PropertyFieldDistance>
nan

$$$$
12129732
BBcorina  12272117083D 1   1.00000     0.00000 
CORINA 4.3.0 0026  30.10.2019
 14 15  0  0  0  0  0  0  0  0999 V2000
  -33.9979    5.1145  -41.9185 N   0  0  0  0  0  0  0  0  0  0  0  0
  -34.9184    5.1571  -43.0626 C   0  0  0  0  0  0  0  0  0  0  0  0
  -36.3858    5.1818  -42.5759 C   0  0  0  0  0  0  0  0  0  0  0  0
  -37.0874    4.3175  -43.6470 C   0  0  0  0  0  0  0  0  0  0  0  0
  -36.0452    3.4350  -44.1845 N   0  0  0  0  0  0  0  0  0  0  0  0
  -36.3096    2.2203  -44.9596 C   0  0  0  0  0  0  0  0  0  0  0  0
  -35.6663    2.3473  -46.3419 C   0  0  0  0  0  0  0  0  0  0  0  0
  -35.9423    1.0786  -47.1514 C   0  0  0  0  0  0  0  0  0  0  0  0
  -35.3512   -0.1300  -46.4228 C   0  0  0  0  0  0  0  0  0  0  0  0
  -35.9946   -0.2569  -45.0405 C   0  0  0  0  0  0  0  0  0  0  0  0
  -35.7185    1.0117  -44.2310 C   0  0  0  0  0  0  0  0  0  0  0  0
  -34.8171    3.8826  -43.8714 C   0  0  0  0  0  0  0  0  0  0  0  0
  -33.7787    3.3458  -44.1947 O   0  0  0  0  0  0  0  0  0  0  0  0
  -32.4821    5.7931  -42.3258 X   0  0  0  0  0  0  0  0  0  0  0  0
  1  2  1  0  0  0  0
  1 14  1  0  0  0  0
  2  3  1  0  0  0  0
  2 12  1  0  0  0  0
  3  4  1  0  0  0  0
  4  5  1  0  0  0  0
  5  6  1  0  0  0  0
  5 12  1  0  0  0  0
  6  7  1  0  0  0  0
  6 11  1  0  0  0  0
  7  8  1  0  0  0  0
  8  9  1  0  0  0  0
  9 10  1  0  0  0  0
 10 11  1  0  0  0  0
 12 13  2  0  0  0  0
M  END
> <Index>
15466

> <PropertyFieldDistance>
nan

$$$$
14723156
BBcorina  12272117083D 1   1.00000     0.00000 
CORINA 4.3.0 0026  30.10.2019
 11 11  0  0  0  0  0  0  0  0999 V2000
  -35.4233    5.8616  -43.0318 N   0  0  0  0  0  0  0  0  0  0  0  0
  -36.5835    5.1291  -42.4992 C   0  0  0  0  0  0  0  0  0  0  0  0
  -37.0474    4.1152  -43.5466 C   0  0  0  0  0  0  0  0  0  0  0  0
  -35.9130    3.3234  -44.0136 N   0  0  0  0  0  0  0  0  0  0  0  0
  -36.1786    2.0543  -44.6954 C   0  0  0  0  0  0  0  0  0  0  0  0
  -36.3066    2.2921  -46.1425 C   0  0  0  0  0  0  0  0  0  0  0  0
  -36.4086    2.4818  -47.2965 C   0  0  0  0  0  0  0  0  0  0  0  0
  -34.6423    3.7024  -43.8418 C   0  0  0  0  0  0  0  0  0  0  0  0
  -33.7606    2.9970  -44.2843 O   0  0  0  0  0  0  0  0  0  0  0  0
  -34.2609    4.9685  -43.1280 C   0  0  0  0  0  0  0  0  0  0  0  0
  -35.7849    6.5624  -44.5491 X   0  0  0  0  0  0  0  0  0  0  0  0
  1  2  1  0  0  0  0
  1 10  1  0  0  0  0
  1 11  1  0  0  0  0
  2  3  1  0  0  0  0
  3  4  1  0  0  0  0
  4  5  1  0  0  0  0
  4  8  1  0  0  0  0
  5  6  1  0  0  0  0
  6  7  3  0  0  0  0
  8  9  2  0  0  0  0
  8 10  1  0  0  0  0
M  END
> <Index>
15467

> <PropertyFieldDistance>
nan

$$$$
12157764
BBcorina  12272117083D 1   1.00000     0.00000 
CORINA 4.3.0 0026  30.10.2019
 11 12  0  0  0  0  0  0  0  0999 V2000
  -37.3707    3.8176  -42.4917 C   0  0  0  0  0  0  0  0  0  0  0  0
  -36.8010    4.5451  -43.7112 C   0  0  0  0  0  0  0  0  0  0  0  0
  -35.9899    3.6148  -44.5290 N   0  0  0  0  0  0  0  0  0  0  0  0
  -34.6194    3.7717  -43.9918 C   0  0  0  0  0  0  0  0  0  0  0  0
  -34.5558    5.1772  -43.4385 C   0  0  0  0  0  0  0  0  0  0  0  0
  -33.4881    5.9888  -43.1079 C   0  0  0  0  0  0  0  0  0  0  0  0
  -33.7126    7.2593  -42.6108 C   0  0  0  0  0  0  0  0  0  0  0  0
  -35.0058    7.7179  -42.4447 C   0  0  0  0  0  0  0  0  0  0  0  0
  -36.0750    6.9057  -42.7743 C   0  0  0  0  0  0  0  0  0  0  0  0
  -35.8516    5.6365  -43.2718 C   0  0  0  0  0  0  0  0  0  0  0  0
  -36.0520    4.0404  -46.1841 X   0  0  0  0  0  0  0  0  0  0  0  0
  1  2  1  0  0  0  0
  2  3  1  0  0  0  0
  2 10  1  0  0  0  0
  3  4  1  0  0  0  0
  3 11  1  0  0  0  0
  4  5  1  0  0  0  0
  5  6  2  0  0  0  0
  5 10  1  0  0  0  0
  6  7  1  0  0  0  0
  7  8  2  0  0  0  0
  8  9  1  0  0  0  0
  9 10  2  0  0  0  0
M  END
> <Index>
15471

> <PropertyFieldDistance>
nan

$$$$
16662488
BBcorina  12272117083D 1   1.00000     0.00000 
CORINA 4.3.0 0026  30.10.2019
 10 10  0  0  0  0  0  0  0  0999 V2000
  -34.5667    1.6965  -41.6744 N   0  0  0  0  0  0  0  0  0  0  0  0
  -35.3506    2.2186  -42.8017 C   0  0  0  0  0  0  0  0  0  0  0  0
  -35.9793    3.5571  -42.4093 C   0  0  0  0  0  0  0  0  0  0  0  0
  -36.7957    4.1009  -43.5835 C   0  0  0  0  0  0  0  0  0  0  0  0
  -35.8792    4.3027  -44.7918 C   0  0  0  0  0  0  0  0  0  0  0  0
  -35.2505    2.9642  -45.1843 C   0  0  0  0  0  0  0  0  0  0  0  0
  -34.4341    2.4205  -44.0101 C   0  0  0  0  0  0  0  0  0  0  0  0
  -36.6647    4.8259  -45.9215 C   0  0  0  0  0  0  0  0  0  0  0  0
  -37.2709    5.2296  -46.7933 N   0  0  0  0  0  0  0  0  0  0  0  0
  -34.5435   -0.0133  -41.6838 X   0  0  0  0  0  0  0  0  0  0  0  0
  1  2  1  0  0  0  0
  1 10  1  0  0  0  0
  2  3  1  0  0  0  0
  2  7  1  0  0  0  0
  3  4  1  0  0  0  0
  4  5  1  0  0  0  0
  5  6  1  0  0  0  0
  5  8  1  0  0  0  0
  6  7  1  0  0  0  0
  8  9  3  0  0  0  0
M  END
> <Index>
15518

> <PropertyFieldDistance>
nan

$$$$
13425820
BBcorina  12272117083D 1   1.00000     0.00000 
CORINA 4.3.0 0026  30.10.2019
 10 11  0  0  0  0  0  0  0  0999 V2000
  -36.3394    0.3842  -43.4266 N   0  0  0  0  0  0  0  0  0  0  0  0
  -36.2917    1.8524  -43.4444 C   0  0  0  0  0  0  0  0  0  0  0  0
  -36.9644    2.3689  -44.7171 C   0  0  0  0  0  0  0  0  0  0  0  0
  -36.9852    3.8982  -44.7087 C   0  0  0  0  0  0  0  0  0  0  0  0
  -35.5479    4.4279  -44.7196 C   0  0  0  0  0  0  0  0  0  0  0  0
  -34.7953    3.8437  -43.5204 C   0  0  0  0  0  0  0  0  0  0  0  0
  -34.8006    4.6459  -42.2194 C   0  0  0  0  0  0  0  0  0  0  0  0
  -33.5253    4.5583  -43.0607 C   0  0  0  0  0  0  0  0  0  0  0  0
  -34.8322    2.3163  -43.4146 C   0  0  0  0  0  0  0  0  0  0  0  0
  -35.5275   -0.2718  -44.7810 X   0  0  0  0  0  0  0  0  0  0  0  0
  1  2  1  0  0  0  0
  1 10  1  0  0  0  0
  2  3  1  0  0  0  0
  2  9  1  0  0  0  0
  3  4  1  0  0  0  0
  4  5  1  0  0  0  0
  5  6  1  0  0  0  0
  6  7  1  0  0  0  0
  6  8  1  0  0  0  0
  6  9  1  0  0  0  0
  7  8  1  0  0  0  0
M  END
> <Index>
15537

> <PropertyFieldDistance>
nan

$$$$
13610274
BBcorina  12272117083D 1   1.00000     0.00000 
CORINA 4.3.0 0026  30.10.2019
 13 14  0  0  0  0  0  0  0  0999 V2000
  -36.4904    3.0062  -45.1540 C   0  0  0  0  0  0  0  0  0  0  0  0
  -35.8615    3.1528  -43.8346 N   0  0  0  0  0  0  0  0  0  0  0  0
  -36.7603    3.8350  -42.8962 C   0  0  0  0  0  0  0  0  0  0  0  0
  -36.7959    5.3274  -43.2500 C   0  0  0  0  0  0  0  0  0  0  0  0
  -35.4789    5.8557  -43.0629 O   0  0  0  0  0  0  0  0  0  0  0  0
  -34.4468    5.1198  -43.5599 C   0  0  0  0  0  0  0  0  0  0  0  0
  -33.2016    5.7216  -43.6934 C   0  0  0  0  0  0  0  0  0  0  0  0
  -32.1295    5.0044  -44.1885 C   0  0  0  0  0  0  0  0  0  0  0  0
  -32.2923    3.6830  -44.5597 C   0  0  0  0  0  0  0  0  0  0  0  0
  -33.5327    3.0757  -44.4376 C   0  0  0  0  0  0  0  0  0  0  0  0
  -33.6958    1.7373  -44.8158 N   0  0  0  0  0  0  0  0  0  0  0  0
  -34.6199    3.7964  -43.9385 C   0  0  0  0  0  0  0  0  0  0  0  0
  -32.4171    0.9051  -45.5882 X   0  0  0  0  0  0  0  0  0  0  0  0
  1  2  1  0  0  0  0
  2  3  1  0  0  0  0
  2 12  1  0  0  0  0
  3  4  1  0  0  0  0
  4  5  1  0  0  0  0
  5  6  1  0  0  0  0
  6  7  2  0  0  0  0
  6 12  1  0  0  0  0
  7  8  1  0  0  0  0
  8  9  2  0  0  0  0
  9 10  1  0  0  0  0
 10 11  1  0  0  0  0
 10 12  2  0  0  0  0
 11 13  1  0  0  0  0
M  END
> <Index>
15542

> <PropertyFieldDistance>
nan

$$$$
6078806
BBcorina  12272117083D 1   1.00000     0.00000 
CORINA 4.3.0 0026  30.10.2019
 12 12  0  0  0  0  0  0  0  0999 V2000
  -36.6470    0.8517  -46.7106 N   0  0  0  0  0  0  0  0  0  0  0  0
  -36.4060    2.1728  -46.1150 C   0  0  0  0  0  0  0  0  0  0  0  0
  -36.1328    2.0151  -44.6179 C   0  0  0  0  0  0  0  0  0  0  0  0
  -35.8925    3.3326  -44.0240 N   0  0  0  0  0  0  0  0  0  0  0  0
  -36.9370    4.0219  -43.5413 C   0  0  0  0  0  0  0  0  0  0  0  0
  -38.0467    3.5370  -43.5982 O   0  0  0  0  0  0  0  0  0  0  0  0
  -36.7582    5.3867  -42.9305 C   0  0  0  0  0  0  0  0  0  0  0  0
  -35.3579    5.4830  -42.3154 C   0  0  0  0  0  0  0  0  0  0  0  0
  -34.3224    5.1525  -43.3956 C   0  0  0  0  0  0  0  0  0  0  0  0
  -34.6366    3.8022  -43.9847 C   0  0  0  0  0  0  0  0  0  0  0  0
  -33.7346    3.1252  -44.4292 O   0  0  0  0  0  0  0  0  0  0  0  0
  -36.9573    0.9827  -48.3871 X   0  0  0  0  0  0  0  0  0  0  0  0
  1  2  1  0  0  0  0
  1 12  1  0  0  0  0
  2  3  1  0  0  0  0
  3  4  1  0  0  0  0
  4  5  1  0  0  0  0
  4 10  1  0  0  0  0
  5  6  2  0  0  0  0
  5  7  1  0  0  0  0
  7  8  1  0  0  0  0
  8  9  1  0  0  0  0
  9 10  1  0  0  0  0
 10 11  2  0  0  0  0
M  END
> <Index>
15559

> <PropertyFieldDistance>
nan

$$$$
10302544
BBcorina  12272117083D 1   1.00000     0.00000 
CORINA 4.3.0 0026  30.10.2019
 11 12  0  0  0  0  0  0  0  0999 V2000
  -35.9475    3.4669  -44.1711 N   0  0  0  0  0  0  0  0  0  0  0  0
  -37.0295    4.3868  -43.7979 C   0  0  0  0  0  0  0  0  0  0  0  0
  -36.6612    5.1097  -42.5000 C   0  0  0  0  0  0  0  0  0  0  0  0
  -35.3530    5.8771  -42.7041 C   0  0  0  0  0  0  0  0  0  0  0  0
  -34.2535    4.9085  -43.1453 C   0  0  0  0  0  0  0  0  0  0  0  0
  -34.6957    4.1918  -44.4234 C   0  0  0  0  0  0  0  0  0  0  0  0
  -35.5370    6.8856  -43.7051 O   0  0  0  0  0  0  0  0  0  0  0  0
  -35.2504    8.1573  -43.0884 C   0  0  0  0  0  0  0  0  0  0  0  0
  -34.3755    7.7672  -41.8708 C   0  0  0  0  0  0  0  0  0  0  0  0
  -34.9700    6.5084  -41.4720 O   0  0  0  0  0  0  0  0  0  0  0  0
  -36.3891    2.5177  -45.5232 X   0  0  0  0  0  0  0  0  0  0  0  0
  1  2  1  0  0  0  0
  1  6  1  0  0  0  0
  1 11  1  0  0  0  0
  2  3  1  0  0  0  0
  3  4  1  0  0  0  0
  4  5  1  0  0  0  0
  4  7  1  0  0  0  0
  4 10  1  0  0  0  0
  5  6  1  0  0  0  0
  7  8  1  0  0  0  0
  8  9  1  0  0  0  0
  9 10  1  0  0  0  0
M  END
> <Index>
15563

> <PropertyFieldDistance>
nan

$$$$
14589246
BBcorina  12272117083D 1   1.00000     0.00000 
CORINA 4.3.0 0026  30.10.2019
 14 14  0  0  0  0  0  0  0  0999 V2000
  -32.9626    5.4312  -43.2367 N   0  0  0  0  0  0  0  0  0  0  0  0
  -34.3578    5.1652  -43.6116 C   0  0  0  0  0  0  0  0  0  0  0  0
  -35.2877    5.6519  -42.4978 C   0  0  0  0  0  0  0  0  0  0  0  0
  -36.7431    5.4051  -42.9018 C   0  0  0  0  0  0  0  0  0  0  0  0
  -36.9669    3.9021  -43.0963 C   0  0  0  0  0  0  0  0  0  0  0  0
  -35.9794    3.3977  -44.0601 N   0  0  0  0  0  0  0  0  0  0  0  0
  -34.5547    3.6595  -43.8142 C   0  0  0  0  0  0  0  0  0  0  0  0
  -36.3728    2.7080  -45.1491 C   0  0  0  0  0  0  0  0  0  0  0  0
  -35.5462    2.2962  -45.9388 O   0  0  0  0  0  0  0  0  0  0  0  0
  -37.6817    2.4753  -45.3620 O   0  0  0  0  0  0  0  0  0  0  0  0
  -38.0325    1.7260  -46.5551 C   0  0  0  0  0  0  0  0  0  0  0  0
  -39.5292    1.5649  -46.6252 C   0  0  0  0  0  0  0  0  0  0  0  0
  -40.1580    1.7709  -47.7558 C   0  0  0  0  0  0  0  0  0  0  0  0
  -31.9963    5.6993  -44.6218 X   0  0  0  0  0  0  0  0  0  0  0  0
  1  2  1  0  0  0  0
  1 14  1  0  0  0  0
  2  3  1  0  0  0  0
  2  7  1  0  0  0  0
  3  4  1  0  0  0  0
  4  5  1  0  0  0  0
  5  6  1  0  0  0  0
  6  7  1  0  0  0  0
  6  8  1  0  0  0  0
  8  9  2  0  0  0  0
  8 10  1  0  0  0  0
 10 11  1  0  0  0  0
 11 12  1  0  0  0  0
 12 13  2  0  0  0  0
M  END
> <Index>
15570

> <PropertyFieldDistance>
nan

$$$$
8690050
BBcorina  12272117083D 1   1.00000     0.00000 
CORINA 4.3.0 0026  30.10.2019
  6  6  0  0  0  0  0  0  0  0999 V2000
  -37.3458    4.7894  -41.4200 F   0  0  0  0  0  0  0  0  0  0  0  0
  -36.4846    4.8057  -42.5225 C   0  0  0  0  0  0  0  0  0  0  0  0
  -37.1759    4.5246  -43.8641 C   0  0  0  0  0  0  0  0  0  0  0  0
  -36.0032    3.7116  -44.2370 N   0  0  0  0  0  0  0  0  0  0  0  0
  -35.7852    3.4674  -42.7989 C   0  0  0  0  0  0  0  0  0  0  0  0
  -36.4810    2.2776  -45.0366 X   0  0  0  0  0  0  0  0  0  0  0  0
  1  2  1  0  0  0  0
  2  3  1  0  0  0  0
  2  5  1  0  0  0  0
  3  4  1  0  0  0  0
  4  5  1  0  0  0  0
  4  6  1  0  0  0  0
M  END
> <Index>
15575

> <PropertyFieldDistance>
nan

$$$$
9209632
BBcorina  12272117083D 1   1.00000     0.00000 
CORINA 4.3.0 0026  30.10.2019
 11 11  0  0  0  0  0  0  0  0999 V2000
  -33.6372    7.3261  -41.6057 C   0  0  0  0  0  0  0  0  0  0  0  0
  -34.9453    6.5600  -41.3980 C   0  0  0  0  0  0  0  0  0  0  0  0
  -36.0427    7.5333  -40.9630 C   0  0  0  0  0  0  0  0  0  0  0  0
  -34.7474    5.4975  -40.3150 C   0  0  0  0  0  0  0  0  0  0  0  0
  -35.3535    5.8833  -42.7079 C   0  0  0  0  0  0  0  0  0  0  0  0
  -36.6585    5.1099  -42.5008 C   0  0  0  0  0  0  0  0  0  0  0  0
  -37.0291    4.3869  -43.7977 C   0  0  0  0  0  0  0  0  0  0  0  0
  -35.9480    3.4664  -44.1723 N   0  0  0  0  0  0  0  0  0  0  0  0
  -34.6958    4.1916  -44.4226 C   0  0  0  0  0  0  0  0  0  0  0  0
  -34.2559    4.9088  -43.1442 C   0  0  0  0  0  0  0  0  0  0  0  0
  -36.3899    2.5211  -45.5270 X   0  0  0  0  0  0  0  0  0  0  0  0
  1  2  1  0  0  0  0
  2  3  1  0  0  0  0
  2  4  1  0  0  0  0
  2  5  1  0  0  0  0
  5  6  1  0  0  0  0
  5 10  1  0  0  0  0
  6  7  1  0  0  0  0
  7  8  1  0  0  0  0
  8  9  1  0  0  0  0
  8 11  1  0  0  0  0
  9 10  1  0  0  0  0
M  END
> <Index>
15577

> <PropertyFieldDistance>
nan

$$$$
12056530
BBcorina  12272117083D 1   1.00000     0.00000 
CORINA 4.3.0 0026  30.10.2019
 13 14  0  0  0  0  0  0  0  0999 V2000
  -34.3709    4.7958  -38.7141 I   0  0  0  0  0  0  0  0  0  0  0  0
  -34.5885    6.4233  -40.0153 C   0  0  0  0  0  0  0  0  0  0  0  0
  -34.3995    7.7315  -39.7204 C   0  0  0  0  0  0  0  0  0  0  0  0
  -34.6419    8.4131  -40.8456 N   0  0  0  0  0  0  0  0  0  0  0  0
  -34.9598    7.5828  -41.7753 N   0  0  0  0  0  0  0  0  0  0  0  0
  -34.9403    6.3786  -41.3213 N   0  0  0  0  0  0  0  0  0  0  0  0
  -35.2462    5.1676  -42.0870 C   0  0  0  0  0  0  0  0  0  0  0  0
  -36.6793    5.2475  -42.6202 C   0  0  0  0  0  0  0  0  0  0  0  0
  -36.9723    4.0087  -43.4694 C   0  0  0  0  0  0  0  0  0  0  0  0
  -36.0191    3.9414  -44.5846 N   0  0  0  0  0  0  0  0  0  0  0  0
  -34.6396    3.8164  -44.0970 C   0  0  0  0  0  0  0  0  0  0  0  0
  -34.2769    5.0496  -43.2665 C   0  0  0  0  0  0  0  0  0  0  0  0
  -36.4111    2.6621  -45.6494 X   0  0  0  0  0  0  0  0  0  0  0  0
  1  2  1  0  0  0  0
  2  3  2  0  0  0  0
  2  6  1  0  0  0  0
  3  4  1  0  0  0  0
  4  5  2  0  0  0  0
  5  6  1  0  0  0  0
  6  7  1  0  0  0  0
  7  8  1  0  0  0  0
  7 12  1  0  0  0  0
  8  9  1  0  0  0  0
  9 10  1  0  0  0  0
 10 11  1  0  0  0  0
 10 13  1  0  0  0  0
 11 12  1  0  0  0  0
M  END
> <Index>
15581

> <PropertyFieldDistance>
nan

$$$$
11982982
BBcorina  12272117083D 1   1.00000     0.00000 
CORINA 4.3.0 0026  30.10.2019
 10 10  0  0  0  0  0  0  0  0999 V2000
  -36.6026    2.1155  -44.6899 C   0  0  0  0  0  0  0  0  0  0  0  0
  -36.1148    3.4780  -44.4620 N   0  0  0  0  0  0  0  0  0  0  0  0
  -36.9784    4.4660  -43.7938 C   0  0  0  0  0  0  0  0  0  0  0  0
  -36.4154    4.7395  -42.3970 C   0  0  0  0  0  0  0  0  0  0  0  0
  -35.3898    5.7714  -42.4446 N   0  0  0  0  0  0  0  0  0  0  0  0
  -34.1500    5.4088  -43.1161 C   0  0  0  0  0  0  0  0  0  0  0  0
  -34.3819    5.2306  -44.6193 C   0  0  0  0  0  0  0  0  0  0  0  0
  -34.8868    3.8225  -44.8611 C   0  0  0  0  0  0  0  0  0  0  0  0
  -34.1782    3.0095  -45.4161 O   0  0  0  0  0  0  0  0  0  0  0  0
  -36.0199    7.2334  -43.0688 X   0  0  0  0  0  0  0  0  0  0  0  0
  1  2  1  0  0  0  0
  2  3  1  0  0  0  0
  2  8  1  0  0  0  0
  3  4  1  0  0  0  0
  4  5  1  0  0  0  0
  5  6  1  0  0  0  0
  5 10  1  0  0  0  0
  6  7  1  0  0  0  0
  7  8  1  0  0  0  0
  8  9  2  0  0  0  0
M  END
> <Index>
15583

> <PropertyFieldDistance>
nan

$$$$
9194514
BBcorina  12272117083D 1   1.00000     0.00000 
CORINA 4.3.0 0026  30.10.2019
 10 11  0  0  0  0  0  0  0  0999 V2000
  -36.2467    3.7167  -44.6325 N   0  0  0  0  0  0  0  0  0  0  0  0
  -37.1392    4.3481  -43.6531 C   0  0  0  0  0  0  0  0  0  0  0  0
  -36.4040    4.7814  -42.3944 C   0  0  0  0  0  0  0  0  0  0  0  0
  -35.3902    5.7995  -42.7093 N   0  0  0  0  0  0  0  0  0  0  0  0
  -34.0836    5.1594  -42.9187 C   0  0  0  0  0  0  0  0  0  0  0  0
  -33.9667    4.5727  -44.3111 C   0  0  0  0  0  0  0  0  0  0  0  0
  -35.2499    4.6797  -45.1212 C   0  0  0  0  0  0  0  0  0  0  0  0
  -35.8564    6.0710  -45.1134 C   0  0  0  0  0  0  0  0  0  0  0  0
  -35.7306    6.7405  -43.7547 C   0  0  0  0  0  0  0  0  0  0  0  0
  -37.1368    3.0449  -45.9289 X   0  0  0  0  0  0  0  0  0  0  0  0
  1  2  1  0  0  0  0
  1  7  1  0  0  0  0
  1 10  1  0  0  0  0
  2  3  1  0  0  0  0
  3  4  1  0  0  0  0
  4  5  1  0  0  0  0
  4  9  1  0  0  0  0
  5  6  1  0  0  0  0
  6  7  1  0  0  0  0
  7  8  1  0  0  0  0
  8  9  1  0  0  0  0
M  END
> <Index>
15601

> <PropertyFieldDistance>
nan

$$$$
12346790
BBcorina  12272117083D 1   1.00000     0.00000 
CORINA 4.3.0 0026  30.10.2019
 10 10  0  0  0  0  0  0  0  0999 V2000
  -34.4013    5.9006  -42.1235 O   0  0  0  0  0  0  0  0  0  0  0  0
  -35.1785    5.4042  -43.2151 C   0  0  0  0  0  0  0  0  0  0  0  0
  -36.6262    5.0856  -42.7574 C   0  0  0  0  0  0  0  0  0  0  0  0
  -37.0460    4.0006  -43.7803 C   0  0  0  0  0  0  0  0  0  0  0  0
  -35.8243    3.1982  -44.0024 N   0  0  0  0  0  0  0  0  0  0  0  0
  -35.7596    2.7097  -45.3863 C   0  0  0  0  0  0  0  0  0  0  0  0
  -36.8490    1.6584  -45.6074 C   0  0  0  0  0  0  0  0  0  0  0  0
  -36.7843    1.1698  -46.9913 N   0  0  0  0  0  0  0  0  0  0  0  0
  -34.6508    4.0309  -43.6805 C   0  0  0  0  0  0  0  0  0  0  0  0
  -37.9878   -0.0098  -47.2816 X   0  0  0  0  0  0  0  0  0  0  0  0
  1  2  1  0  0  0  0
  2  3  1  0  0  0  0
  2  9  1  0  0  0  0
  3  4  1  0  0  0  0
  4  5  1  0  0  0  0
  5  6  1  0  0  0  0
  5  9  1  0  0  0  0
  6  7  1  0  0  0  0
  7  8  1  0  0  0  0
  8 10  1  0  0  0  0
M  END
> <Index>
15604

> <PropertyFieldDistance>
nan

$$$$
12310986
BBcorina  12272117083D 1   1.00000     0.00000 
CORINA 4.3.0 0026  30.10.2019
 10 10  0  0  0  0  0  0  0  0999 V2000
  -34.4013    5.9006  -42.1235 O   0  0  0  0  0  0  0  0  0  0  0  0
  -35.1785    5.4042  -43.2151 C   0  0  0  0  0  0  0  0  0  0  0  0
  -36.6262    5.0856  -42.7574 C   0  0  0  0  0  0  0  0  0  0  0  0
  -37.0460    4.0006  -43.7803 C   0  0  0  0  0  0  0  0  0  0  0  0
  -35.8243    3.1982  -44.0024 N   0  0  0  0  0  0  0  0  0  0  0  0
  -35.7596    2.7097  -45.3863 C   0  0  0  0  0  0  0  0  0  0  0  0
  -36.8490    1.6584  -45.6074 C   0  0  0  0  0  0  0  0  0  0  0  0
  -36.7843    1.1698  -46.9913 N   0  0  0  0  0  0  0  0  0  0  0  0
  -34.6508    4.0309  -43.6805 C   0  0  0  0  0  0  0  0  0  0  0  0
  -37.9878   -0.0098  -47.2816 X   0  0  0  0  0  0  0  0  0  0  0  0
  1  2  1  0  0  0  0
  2  3  1  0  0  0  0
  2  9  1  0  0  0  0
  3  4  1  0  0  0  0
  4  5  1  0  0  0  0
  5  6  1  0  0  0  0
  5  9  1  0  0  0  0
  6  7  1  0  0  0  0
  7  8  1  0  0  0  0
  8 10  1  0  0  0  0
M  END
> <Index>
15605

> <PropertyFieldDistance>
nan

$$$$
17313718
BBcorina  12272117083D 1   1.00000     0.00000 
CORINA 4.3.0 0026  30.10.2019
  8  8  0  0  0  0  0  0  0  0999 V2000
  -38.8829    3.3454  -44.8769 F   0  0  0  0  0  0  0  0  0  0  0  0
  -38.3655    3.7175  -43.6315 C   0  0  0  0  0  0  0  0  0  0  0  0
  -37.0530    4.4782  -43.8312 C   0  0  0  0  0  0  0  0  0  0  0  0
  -36.4385    4.8666  -42.4634 C   0  0  0  0  0  0  0  0  0  0  0  0
  -34.9374    5.0165  -42.8253 C   0  0  0  0  0  0  0  0  0  0  0  0
  -34.7234    3.9144  -43.8840 C   0  0  0  0  0  0  0  0  0  0  0  0
  -36.0427    3.6040  -44.4644 N   0  0  0  0  0  0  0  0  0  0  0  0
  -36.0299    3.8118  -46.1617 X   0  0  0  0  0  0  0  0  0  0  0  0
  1  2  1  0  0  0  0
  2  3  1  0  0  0  0
  3  4  1  0  0  0  0
  3  7  1  0  0  0  0
  4  5  1  0  0  0  0
  5  6  1  0  0  0  0
  6  7  1  0  0  0  0
  7  8  1  0  0  0  0
M  END
> <Index>
15606

> <PropertyFieldDistance>
nan

$$$$
9293692
BBcorina  12272117083D 1   1.00000     0.00000 
CORINA 4.3.0 0026  30.10.2019
  9  9  0  0  0  0  0  0  0  0999 V2000
  -32.5450    5.0620  -43.5611 C   0  0  0  0  0  0  0  0  0  0  0  0
  -34.0569    4.9803  -43.3415 C   0  0  0  0  0  0  0  0  0  0  0  0
  -34.6543    6.3641  -43.4251 C   0  0  0  0  0  0  0  0  0  0  0  0
  -36.0558    6.5450  -42.2685 S   0  0  0  0  0  0  0  0  0  0  0  0
  -36.9474    4.9605  -42.3965 C   0  0  0  0  0  0  0  0  0  0  0  0
  -36.9971    4.4966  -43.8335 C   0  0  0  0  0  0  0  0  0  0  0  0
  -35.8988    3.5350  -44.0381 N   0  0  0  0  0  0  0  0  0  0  0  0
  -34.6871    4.0912  -44.4281 C   0  0  0  0  0  0  0  0  0  0  0  0
  -36.3702    2.2840  -45.1043 X   0  0  0  0  0  0  0  0  0  0  0  0
  1  2  1  0  0  0  0
  2  3  1  0  0  0  0
  2  8  1  0  0  0  0
  3  4  1  0  0  0  0
  4  5  1  0  0  0  0
  5  6  1  0  0  0  0
  6  7  1  0  0  0  0
  7  8  1  0  0  0  0
  7  9  1  0  0  0  0
M  END
> <Index>
15613

> <PropertyFieldDistance>
nan

$$$$
9298186
BBcorina  12272117083D 1   1.00000     0.00000 
CORINA 4.3.0 0026  30.10.2019
  9  9  0  0  0  0  0  0  0  0999 V2000
  -36.4406    5.7447  -40.1890 C   0  0  0  0  0  0  0  0  0  0  0  0
  -35.9713    5.0075  -41.4447 C   0  0  0  0  0  0  0  0  0  0  0  0
  -36.9456    5.2486  -42.5676 C   0  0  0  0  0  0  0  0  0  0  0  0
  -37.0691    4.1293  -43.6274 C   0  0  0  0  0  0  0  0  0  0  0  0
  -35.8214    3.5605  -44.1631 N   0  0  0  0  0  0  0  0  0  0  0  0
  -34.8529    4.5838  -44.4326 C   0  0  0  0  0  0  0  0  0  0  0  0
  -33.8982    4.5414  -43.2470 C   0  0  0  0  0  0  0  0  0  0  0  0
  -34.3071    5.6391  -41.9480 S   0  0  0  0  0  0  0  0  0  0  0  0
  -36.1259    2.6218  -45.5597 X   0  0  0  0  0  0  0  0  0  0  0  0
  1  2  1  0  0  0  0
  2  3  1  0  0  0  0
  2  8  1  0  0  0  0
  3  4  1  0  0  0  0
  4  5  1  0  0  0  0
  5  6  1  0  0  0  0
  5  9  1  0  0  0  0
  6  7  1  0  0  0  0
  7  8  1  0  0  0  0
M  END
> <Index>
15614

> <PropertyFieldDistance>
nan

$$$$
13475498
BBcorina  12272117083D 1   1.00000     0.00000 
CORINA 4.3.0 0026  30.10.2019
 12 13  0  0  0  0  0  0  0  0999 V2000
  -35.7937    2.0079  -46.7876 Br  0  0  0  0  0  0  0  0  0  0  0  0
  -36.6293    3.0063  -45.4163 C   0  0  0  0  0  0  0  0  0  0  0  0
  -37.9564    3.1566  -45.2232 C   0  0  0  0  0  0  0  0  0  0  0  0
  -38.1348    3.9379  -44.1453 N   0  0  0  0  0  0  0  0  0  0  0  0
  -36.9745    4.2757  -43.6645 C   0  0  0  0  0  0  0  0  0  0  0  0
  -36.6982    5.1426  -42.4588 C   0  0  0  0  0  0  0  0  0  0  0  0
  -35.2362    4.9341  -42.0437 C   0  0  0  0  0  0  0  0  0  0  0  0
  -34.3379    5.0638  -43.2772 C   0  0  0  0  0  0  0  0  0  0  0  0
  -34.5687    3.8670  -44.2063 C   0  0  0  0  0  0  0  0  0  0  0  0
  -36.0080    3.7145  -44.4309 N   0  0  0  0  0  0  0  0  0  0  0  0
  -32.9306    5.0931  -42.8571 N   0  0  0  0  0  0  0  0  0  0  0  0
  -31.9857    6.0155  -43.9436 X   0  0  0  0  0  0  0  0  0  0  0  0
  1  2  1  0  0  0  0
  2  3  2  0  0  0  0
  2 10  1  0  0  0  0
  3  4  1  0  0  0  0
  4  5  2  0  0  0  0
  5  6  1  0  0  0  0
  5 10  1  0  0  0  0
  6  7  1  0  0  0  0
  7  8  1  0  0  0  0
  8  9  1  0  0  0  0
  8 11  1  0  0  0  0
  9 10  1  0  0  0  0
 11 12  1  0  0  0  0
M  END
> <Index>
15615

> <PropertyFieldDistance>
nan

$$$$
16734752
BBcorina  12272117083D 1   1.00000     0.00000 
CORINA 4.3.0 0026  30.10.2019
 10 10  0  0  0  0  0  0  0  0999 V2000
  -30.5622    5.2607  -43.0243 C   0  0  0  0  0  0  0  0  0  0  0  0
  -31.9457    5.4559  -43.6478 C   0  0  0  0  0  0  0  0  0  0  0  0
  -32.9415    4.9181  -42.7752 O   0  0  0  0  0  0  0  0  0  0  0  0
  -34.2769    5.0496  -43.2665 C   0  0  0  0  0  0  0  0  0  0  0  0
  -35.2461    5.1686  -42.0870 C   0  0  0  0  0  0  0  0  0  0  0  0
  -36.6793    5.2476  -42.6202 C   0  0  0  0  0  0  0  0  0  0  0  0
  -36.9723    4.0086  -43.4695 C   0  0  0  0  0  0  0  0  0  0  0  0
  -36.0191    3.9414  -44.5845 N   0  0  0  0  0  0  0  0  0  0  0  0
  -34.6397    3.8164  -44.0970 C   0  0  0  0  0  0  0  0  0  0  0  0
  -36.4111    2.6622  -45.6494 X   0  0  0  0  0  0  0  0  0  0  0  0
  1  2  1  0  0  0  0
  2  3  1  0  0  0  0
  3  4  1  0  0  0  0
  4  5  1  0  0  0  0
  4  9  1  0  0  0  0
  5  6  1  0  0  0  0
  6  7  1  0  0  0  0
  7  8  1  0  0  0  0
  8  9  1  0  0  0  0
  8 10  1  0  0  0  0
M  END
> <Index>
15616

> <PropertyFieldDistance>
nan

$$$$
7143438
BBcorina  12272117083D 1   1.00000     0.00000 
CORINA 4.3.0 0026  30.10.2019
 11 12  0  0  0  0  0  0  0  0999 V2000
  -35.9723    3.3848  -44.1678 N   0  0  0  0  0  0  0  0  0  0  0  0
  -37.1046    4.3073  -44.0676 C   0  0  0  0  0  0  0  0  0  0  0  0
  -36.1462    5.2506  -43.3355 C   0  0  0  0  0  0  0  0  0  0  0  0
  -35.8991    6.6344  -43.7678 C   0  0  0  0  0  0  0  0  0  0  0  0
  -35.9458    7.5408  -42.5774 C   0  0  0  0  0  0  0  0  0  0  0  0
  -34.6822    7.3619  -41.6565 C   0  0  0  0  0  0  0  0  0  0  0  0
  -34.6015    5.9645  -41.0297 C   0  0  0  0  0  0  0  0  0  0  0  0
  -34.1172    4.8199  -41.8445 C   0  0  0  0  0  0  0  0  0  0  0  0
  -33.8064    4.8839  -43.3072 C   0  0  0  0  0  0  0  0  0  0  0  0
  -35.0828    4.5327  -44.1279 C   0  0  0  0  0  0  0  0  0  0  0  0
  -35.9271    2.6159  -45.6944 X   0  0  0  0  0  0  0  0  0  0  0  0
  1  2  1  0  0  0  0
  1 10  1  0  0  0  0
  1 11  1  0  0  0  0
  2  3  1  0  0  0  0
  3  4  1  0  0  0  0
  3 10  1  0  0  0  0
  4  5  1  0  0  0  0
  5  6  1  0  0  0  0
  6  7  1  0  0  0  0
  7  8  1  0  0  0  0
  8  9  1  0  0  0  0
  9 10  1  0  0  0  0
M  END
> <Index>
15629

> <PropertyFieldDistance>
nan

$$$$
9107192
BBcorina  12272117083D 1   1.00000     0.00000 
CORINA 4.3.0 0026  30.10.2019
 15 15  0  0  0  0  0  0  0  0999 V2000
  -37.3730    0.3460  -46.5027 C   0  0  0  0  0  0  0  0  0  0  0  0
  -38.0325    1.7256  -46.5550 C   0  0  0  0  0  0  0  0  0  0  0  0
  -39.5521    1.5621  -46.6261 C   0  0  0  0  0  0  0  0  0  0  0  0
  -37.5421    2.4788  -47.7931 C   0  0  0  0  0  0  0  0  0  0  0  0
  -37.6818    2.4752  -45.3619 O   0  0  0  0  0  0  0  0  0  0  0  0
  -36.3728    2.7078  -45.1490 C   0  0  0  0  0  0  0  0  0  0  0  0
  -35.5462    2.2957  -45.9386 O   0  0  0  0  0  0  0  0  0  0  0  0
  -35.9793    3.3978  -44.0602 N   0  0  0  0  0  0  0  0  0  0  0  0
  -36.9670    3.9022  -43.0964 C   0  0  0  0  0  0  0  0  0  0  0  0
  -36.7430    5.4051  -42.9017 C   0  0  0  0  0  0  0  0  0  0  0  0
  -35.2877    5.6518  -42.4977 C   0  0  0  0  0  0  0  0  0  0  0  0
  -34.3578    5.1652  -43.6116 C   0  0  0  0  0  0  0  0  0  0  0  0
  -34.5547    3.6596  -43.8143 C   0  0  0  0  0  0  0  0  0  0  0  0
  -32.9626    5.4312  -43.2367 N   0  0  0  0  0  0  0  0  0  0  0  0
  -31.9963    5.6994  -44.6217 X   0  0  0  0  0  0  0  0  0  0  0  0
  1  2  1  0  0  0  0
  2  3  1  0  0  0  0
  2  4  1  0  0  0  0
  2  5  1  0  0  0  0
  5  6  1  0  0  0  0
  6  7  2  0  0  0  0
  6  8  1  0  0  0  0
  8  9  1  0  0  0  0
  8 13  1  0  0  0  0
  9 10  1  0  0  0  0
 10 11  1  0  0  0  0
 11 12  1  0  0  0  0
 12 13  1  0  0  0  0
 12 14  1  0  0  0  0
 14 15  1  0  0  0  0
M  END
> <Index>
15634

> <PropertyFieldDistance>
nan

$$$$
7919338
BBcorina  12272117083D 1   1.00000     0.00000 
CORINA 4.3.0 0026  30.10.2019
 15 15  0  0  0  0  0  0  0  0999 V2000
  -37.3730    0.3460  -46.5027 C   0  0  0  0  0  0  0  0  0  0  0  0
  -38.0325    1.7256  -46.5550 C   0  0  0  0  0  0  0  0  0  0  0  0
  -39.5521    1.5621  -46.6261 C   0  0  0  0  0  0  0  0  0  0  0  0
  -37.5421    2.4788  -47.7931 C   0  0  0  0  0  0  0  0  0  0  0  0
  -37.6818    2.4752  -45.3619 O   0  0  0  0  0  0  0  0  0  0  0  0
  -36.3728    2.7078  -45.1490 C   0  0  0  0  0  0  0  0  0  0  0  0
  -35.5462    2.2957  -45.9386 O   0  0  0  0  0  0  0  0  0  0  0  0
  -35.9793    3.3978  -44.0602 N   0  0  0  0  0  0  0  0  0  0  0  0
  -36.9670    3.9022  -43.0964 C   0  0  0  0  0  0  0  0  0  0  0  0
  -36.7430    5.4051  -42.9017 C   0  0  0  0  0  0  0  0  0  0  0  0
  -35.2877    5.6518  -42.4977 C   0  0  0  0  0  0  0  0  0  0  0  0
  -34.3578    5.1652  -43.6116 C   0  0  0  0  0  0  0  0  0  0  0  0
  -34.5547    3.6596  -43.8143 C   0  0  0  0  0  0  0  0  0  0  0  0
  -32.9626    5.4312  -43.2367 N   0  0  0  0  0  0  0  0  0  0  0  0
  -31.9963    5.6994  -44.6217 X   0  0  0  0  0  0  0  0  0  0  0  0
  1  2  1  0  0  0  0
  2  3  1  0  0  0  0
  2  4  1  0  0  0  0
  2  5  1  0  0  0  0
  5  6  1  0  0  0  0
  6  7  2  0  0  0  0
  6  8  1  0  0  0  0
  8  9  1  0  0  0  0
  8 13  1  0  0  0  0
  9 10  1  0  0  0  0
 10 11  1  0  0  0  0
 11 12  1  0  0  0  0
 12 13  1  0  0  0  0
 12 14  1  0  0  0  0
 14 15  1  0  0  0  0
M  END
> <Index>
15635

> <PropertyFieldDistance>
nan

$$$$
12632254
BBcorina  12272117083D 1   1.00000     0.00000 
CORINA 4.3.0 0026  30.10.2019
 14 15  0  0  0  0  0  0  0  0999 V2000
  -36.4311    2.6232  -45.2663 C   0  0  0  0  0  0  0  0  0  0  0  0
  -35.9890    3.2949  -44.0369 N   0  0  0  0  0  0  0  0  0  0  0  0
  -37.0103    4.2348  -43.5539 C   0  0  0  0  0  0  0  0  0  0  0  0
  -36.5467    4.8530  -42.2328 C   0  0  0  0  0  0  0  0  0  0  0  0
  -35.2619    5.5360  -42.4387 N   0  0  0  0  0  0  0  0  0  0  0  0
  -34.2406    4.5962  -42.9218 C   0  0  0  0  0  0  0  0  0  0  0  0
  -34.7042    3.9779  -44.2429 C   0  0  0  0  0  0  0  0  0  0  0  0
  -34.8198    6.2078  -41.2095 C   0  0  0  0  0  0  0  0  0  0  0  0
  -33.4810    6.9069  -41.4615 C   0  0  0  0  0  0  0  0  0  0  0  0
  -33.0556    7.6551  -40.1961 C   0  0  0  0  0  0  0  0  0  0  0  0
  -34.0839    8.6413  -39.8401 N   0  0  0  0  0  0  0  0  0  0  0  0
  -35.3665    7.9890  -39.5474 C   0  0  0  0  0  0  0  0  0  0  0  0
  -35.8609    7.2507  -40.7934 C   0  0  0  0  0  0  0  0  0  0  0  0
  -33.5750    9.6099  -38.5260 X   0  0  0  0  0  0  0  0  0  0  0  0
  1  2  1  0  0  0  0
  2  3  1  0  0  0  0
  2  7  1  0  0  0  0
  3  4  1  0  0  0  0
  4  5  1  0  0  0  0
  5  6  1  0  0  0  0
  5  8  1  0  0  0  0
  6  7  1  0  0  0  0
  8  9  1  0  0  0  0
  8 13  1  0  0  0  0
  9 10  1  0  0  0  0
 10 11  1  0  0  0  0
 11 12  1  0  0  0  0
 11 14  1  0  0  0  0
 12 13  1  0  0  0  0
M  END
> <Index>
15641

> <PropertyFieldDistance>
nan

$$$$
11975800
BBcorina  12272117083D 1   1.00000     0.00000 
CORINA 4.3.0 0026  30.10.2019
 14 14  0  0  0  0  0  0  0  0999 V2000
  -37.2107   -0.4973  -45.0588 C   0  0  0  0  0  0  0  0  0  0  0  0
  -37.8115    0.6597  -45.8594 C   0  0  0  0  0  0  0  0  0  0  0  0
  -39.3101    0.4209  -46.0547 C   0  0  0  0  0  0  0  0  0  0  0  0
  -37.1265    0.7450  -47.2248 C   0  0  0  0  0  0  0  0  0  0  0  0
  -37.6095    1.9036  -45.1381 O   0  0  0  0  0  0  0  0  0  0  0  0
  -36.3372    2.2625  -44.8828 C   0  0  0  0  0  0  0  0  0  0  0  0
  -35.4208    1.5556  -45.2526 O   0  0  0  0  0  0  0  0  0  0  0  0
  -36.0803    3.4058  -44.2171 N   0  0  0  0  0  0  0  0  0  0  0  0
  -37.0917    4.3529  -43.7137 C   0  0  0  0  0  0  0  0  0  0  0  0
  -36.3913    5.1007  -42.5519 C   0  0  0  0  0  0  0  0  0  0  0  0
  -34.9436    5.2328  -43.0942 C   0  0  0  0  0  0  0  0  0  0  0  0
  -34.7447    3.9153  -43.8729 C   0  0  0  0  0  0  0  0  0  0  0  0
  -33.9815    5.3333  -41.9886 N   0  0  0  0  0  0  0  0  0  0  0  0
  -32.5584    6.1405  -42.4861 X   0  0  0  0  0  0  0  0  0  0  0  0
  1  2  1  0  0  0  0
  2  3  1  0  0  0  0
  2  4  1  0  0  0  0
  2  5  1  0  0  0  0
  5  6  1  0  0  0  0
  6  7  2  0  0  0  0
  6  8  1  0  0  0  0
  8  9  1  0  0  0  0
  8 12  1  0  0  0  0
  9 10  1  0  0  0  0
 10 11  1  0  0  0  0
 11 12  1  0  0  0  0
 11 13  1  0  0  0  0
 13 14  1  0  0  0  0
M  END
> <Index>
15644

> <PropertyFieldDistance>
nan

$$$$
12345016
BBcorina  12272117083D 1   1.00000     0.00000 
CORINA 4.3.0 0026  30.10.2019
 14 14  0  0  0  0  0  0  0  0999 V2000
  -37.2107   -0.4973  -45.0588 C   0  0  0  0  0  0  0  0  0  0  0  0
  -37.8115    0.6597  -45.8594 C   0  0  0  0  0  0  0  0  0  0  0  0
  -39.3101    0.4209  -46.0547 C   0  0  0  0  0  0  0  0  0  0  0  0
  -37.1265    0.7450  -47.2248 C   0  0  0  0  0  0  0  0  0  0  0  0
  -37.6095    1.9036  -45.1381 O   0  0  0  0  0  0  0  0  0  0  0  0
  -36.3372    2.2625  -44.8828 C   0  0  0  0  0  0  0  0  0  0  0  0
  -35.4208    1.5556  -45.2526 O   0  0  0  0  0  0  0  0  0  0  0  0
  -36.0803    3.4058  -44.2171 N   0  0  0  0  0  0  0  0  0  0  0  0
  -37.0917    4.3529  -43.7137 C   0  0  0  0  0  0  0  0  0  0  0  0
  -36.3913    5.1007  -42.5519 C   0  0  0  0  0  0  0  0  0  0  0  0
  -34.9436    5.2328  -43.0942 C   0  0  0  0  0  0  0  0  0  0  0  0
  -34.7447    3.9153  -43.8729 C   0  0  0  0  0  0  0  0  0  0  0  0
  -33.9815    5.3333  -41.9886 N   0  0  0  0  0  0  0  0  0  0  0  0
  -32.5584    6.1405  -42.4861 X   0  0  0  0  0  0  0  0  0  0  0  0
  1  2  1  0  0  0  0
  2  3  1  0  0  0  0
  2  4  1  0  0  0  0
  2  5  1  0  0  0  0
  5  6  1  0  0  0  0
  6  7  2  0  0  0  0
  6  8  1  0  0  0  0
  8  9  1  0  0  0  0
  8 12  1  0  0  0  0
  9 10  1  0  0  0  0
 10 11  1  0  0  0  0
 11 12  1  0  0  0  0
 11 13  1  0  0  0  0
 13 14  1  0  0  0  0
M  END
> <Index>
15645

> <PropertyFieldDistance>
nan

$$$$
16899768
BBcorina  12272117083D 1   1.00000     0.00000 
CORINA 4.3.0 0026  30.10.2019
  7  7  0  0  0  0  0  0  0  0999 V2000
  -36.5327    1.6389  -42.9819 F   0  0  0  0  0  0  0  0  0  0  0  0
  -36.2077    2.3408  -44.1476 C   0  0  0  0  0  0  0  0  0  0  0  0
  -36.5578    1.7127  -45.3476 F   0  0  0  0  0  0  0  0  0  0  0  0
  -36.2907    3.8678  -44.0991 C   0  0  0  0  0  0  0  0  0  0  0  0
  -34.9262    3.1766  -44.1349 C   0  0  0  0  0  0  0  0  0  0  0  0
  -34.1312    3.1806  -42.8996 N   0  0  0  0  0  0  0  0  0  0  0  0
  -35.0476    2.5968  -41.5792 X   0  0  0  0  0  0  0  0  0  0  0  0
  1  2  1  0  0  0  0
  2  3  1  0  0  0  0
  2  4  1  0  0  0  0
  2  5  1  0  0  0  0
  4  5  1  0  0  0  0
  5  6  1  0  0  0  0
  6  7  1  0  0  0  0
M  END
> <Index>
15647

> <PropertyFieldDistance>
nan

$$$$
11688286
BBcorina  12272117083D 1   1.00000     0.00000 
CORINA 4.3.0 0026  30.10.2019
 13 14  0  0  0  0  0  0  0  0999 V2000
  -35.2517    5.7273  -42.7086 N   0  0  0  0  0  0  0  0  0  0  0  0
  -36.5103    5.0791  -42.3144 C   0  0  0  0  0  0  0  0  0  0  0  0
  -37.0927    4.3292  -43.5148 C   0  0  0  0  0  0  0  0  0  0  0  0
  -36.1183    3.3364  -43.9885 N   0  0  0  0  0  0  0  0  0  0  0  0
  -36.6706    2.5427  -45.0944 C   0  0  0  0  0  0  0  0  0  0  0  0
  -35.5753    1.7129  -45.7132 C   0  0  0  0  0  0  0  0  0  0  0  0
  -35.2343    0.4797  -45.3414 N   0  0  0  0  0  0  0  0  0  0  0  0
  -34.2465    0.0496  -46.0837 C   0  0  0  0  0  0  0  0  0  0  0  0
  -33.9315    1.0182  -46.9609 N   0  0  0  0  0  0  0  0  0  0  0  0
  -34.8096    2.0841  -46.7054 N   0  0  0  0  0  0  0  0  0  0  0  0
  -34.8596    3.9845  -44.3827 C   0  0  0  0  0  0  0  0  0  0  0  0
  -34.2773    4.7344  -43.1823 C   0  0  0  0  0  0  0  0  0  0  0  0
  -34.6088    6.6511  -41.4213 X   0  0  0  0  0  0  0  0  0  0  0  0
  1  2  1  0  0  0  0
  1 12  1  0  0  0  0
  1 13  1  0  0  0  0
  2  3  1  0  0  0  0
  3  4  1  0  0  0  0
  4  5  1  0  0  0  0
  4 11  1  0  0  0  0
  5  6  1  0  0  0  0
  6  7  1  0  0  0  0
  6 10  2  0  0  0  0
  7  8  2  0  0  0  0
  8  9  1  0  0  0  0
  9 10  1  0  0  0  0
 11 12  1  0  0  0  0
M  END
> <Index>
15685

> <PropertyFieldDistance>
nan

$$$$
11682178
BBcorina  12272117083D 1   1.00000     0.00000 
CORINA 4.3.0 0026  30.10.2019
 13 13  0  0  0  0  0  0  0  0999 V2000
  -36.9358    1.2205  -48.2626 C   0  0  0  0  0  0  0  0  0  0  0  0
  -36.5721    1.0068  -46.8555 N   0  0  0  0  0  0  0  0  0  0  0  0
  -35.4207    0.1017  -46.7409 C   0  0  0  0  0  0  0  0  0  0  0  0
  -36.3066    2.2842  -46.1804 C   0  0  0  0  0  0  0  0  0  0  0  0
  -36.1777    2.0481  -44.6743 C   0  0  0  0  0  0  0  0  0  0  0  0
  -35.9130    3.3220  -44.0011 N   0  0  0  0  0  0  0  0  0  0  0  0
  -37.0481    4.1179  -43.5429 C   0  0  0  0  0  0  0  0  0  0  0  0
  -36.5841    5.1374  -42.5010 C   0  0  0  0  0  0  0  0  0  0  0  0
  -35.4221    5.8650  -43.0364 N   0  0  0  0  0  0  0  0  0  0  0  0
  -34.2609    4.9696  -43.1258 C   0  0  0  0  0  0  0  0  0  0  0  0
  -34.6432    3.7023  -43.8368 C   0  0  0  0  0  0  0  0  0  0  0  0
  -33.7623    2.9951  -44.2778 O   0  0  0  0  0  0  0  0  0  0  0  0
  -35.0653    7.2378  -42.0813 X   0  0  0  0  0  0  0  0  0  0  0  0
  1  2  1  0  0  0  0
  2  3  1  0  0  0  0
  2  4  1  0  0  0  0
  4  5  1  0  0  0  0
  5  6  1  0  0  0  0
  6  7  1  0  0  0  0
  6 11  1  0  0  0  0
  7  8  1  0  0  0  0
  8  9  1  0  0  0  0
  9 10  1  0  0  0  0
  9 13  1  0  0  0  0
 10 11  1  0  0  0  0
 11 12  2  0  0  0  0
M  END
> <Index>
15687

> <PropertyFieldDistance>
nan

$$$$
7764378
BBcorina  12272117083D 1   1.00000     0.00000 
CORINA 4.3.0 0026  30.10.2019
 14 14  0  0  0  0  0  0  0  0999 V2000
  -37.8852    0.3548  -46.3479 C   0  0  0  0  0  0  0  0  0  0  0  0
  -36.5831    0.9538  -46.8835 C   0  0  0  0  0  0  0  0  0  0  0  0
  -36.7120    1.1899  -48.3897 C   0  0  0  0  0  0  0  0  0  0  0  0
  -35.4286   -0.0140  -46.6160 C   0  0  0  0  0  0  0  0  0  0  0  0
  -36.3066    2.2842  -46.1804 C   0  0  0  0  0  0  0  0  0  0  0  0
  -36.1777    2.0481  -44.6743 C   0  0  0  0  0  0  0  0  0  0  0  0
  -35.9130    3.3220  -44.0011 N   0  0  0  0  0  0  0  0  0  0  0  0
  -37.0481    4.1179  -43.5429 C   0  0  0  0  0  0  0  0  0  0  0  0
  -36.5841    5.1374  -42.5010 C   0  0  0  0  0  0  0  0  0  0  0  0
  -35.4221    5.8650  -43.0364 N   0  0  0  0  0  0  0  0  0  0  0  0
  -34.2609    4.9696  -43.1258 C   0  0  0  0  0  0  0  0  0  0  0  0
  -34.6432    3.7023  -43.8368 C   0  0  0  0  0  0  0  0  0  0  0  0
  -33.7623    2.9951  -44.2778 O   0  0  0  0  0  0  0  0  0  0  0  0
  -35.0653    7.2378  -42.0813 X   0  0  0  0  0  0  0  0  0  0  0  0
  1  2  1  0  0  0  0
  2  3  1  0  0  0  0
  2  4  1  0  0  0  0
  2  5  1  0  0  0  0
  5  6  1  0  0  0  0
  6  7  1  0  0  0  0
  7  8  1  0  0  0  0
  7 12  1  0  0  0  0
  8  9  1  0  0  0  0
  9 10  1  0  0  0  0
 10 11  1  0  0  0  0
 10 14  1  0  0  0  0
 11 12  1  0  0  0  0
 12 13  2  0  0  0  0
M  END
> <Index>
15688

> <PropertyFieldDistance>
nan

$$$$
7945664
BBcorina  12272117083D 1   1.00000     0.00000 
CORINA 4.3.0 0026  30.10.2019
  9 10  0  0  0  0  0  0  0  0999 V2000
  -36.0199    3.7159  -44.5571 N   0  0  0  0  0  0  0  0  0  0  0  0
  -37.0824    4.3543  -43.7588 C   0  0  0  0  0  0  0  0  0  0  0  0
  -36.4169    4.9364  -42.4940 C   0  0  0  0  0  0  0  0  0  0  0  0
  -34.9333    5.0924  -42.9200 C   0  0  0  0  0  0  0  0  0  0  0  0
  -34.7385    3.8565  -43.8332 C   0  0  0  0  0  0  0  0  0  0  0  0
  -34.0048    5.0285  -41.7056 C   0  0  0  0  0  0  0  0  0  0  0  0
  -32.5023    5.1689  -41.9571 C   0  0  0  0  0  0  0  0  0  0  0  0
  -33.2794    6.3138  -41.3026 C   0  0  0  0  0  0  0  0  0  0  0  0
  -36.3798    2.0705  -44.8522 X   0  0  0  0  0  0  0  0  0  0  0  0
  1  2  1  0  0  0  0
  1  5  1  0  0  0  0
  1  9  1  0  0  0  0
  2  3  1  0  0  0  0
  3  4  1  0  0  0  0
  4  5  1  0  0  0  0
  4  6  1  0  0  0  0
  6  7  1  0  0  0  0
  6  8  1  0  0  0  0
  7  8  1  0  0  0  0
M  END
> <Index>
15697

> <PropertyFieldDistance>
nan

$$$$
14264774
BBcorina  12272117083D 1   1.00000     0.00000 
CORINA 4.3.0 0026  30.10.2019
 10 10  0  0  0  0  0  0  0  0999 V2000
  -31.6989    4.9430  -41.0916 C   0  0  0  0  0  0  0  0  0  0  0  0
  -32.8217    4.0534  -41.6289 C   0  0  0  0  0  0  0  0  0  0  0  0
  -34.0838    4.8050  -41.6303 N   0  0  0  0  0  0  0  0  0  0  0  0
  -34.5115    5.1183  -40.2602 C   0  0  0  0  0  0  0  0  0  0  0  0
  -35.1316    4.0731  -42.3544 C   0  0  0  0  0  0  0  0  0  0  0  0
  -36.4196    4.9319  -42.4898 C   0  0  0  0  0  0  0  0  0  0  0  0
  -37.0796    4.3646  -43.7642 C   0  0  0  0  0  0  0  0  0  0  0  0
  -36.0217    3.7054  -44.5516 N   0  0  0  0  0  0  0  0  0  0  0  0
  -34.7367    3.8612  -43.8373 C   0  0  0  0  0  0  0  0  0  0  0  0
  -35.9306    4.3633  -46.1274 X   0  0  0  0  0  0  0  0  0  0  0  0
  1  2  1  0  0  0  0
  2  3  1  0  0  0  0
  3  4  1  0  0  0  0
  3  5  1  0  0  0  0
  5  6  1  0  0  0  0
  5  9  1  0  0  0  0
  6  7  1  0  0  0  0
  7  8  1  0  0  0  0
  8  9  1  0  0  0  0
  8 10  1  0  0  0  0
M  END
> <Index>
15701

> <PropertyFieldDistance>
nan

$$$$
10690832
BBcorina  12272117083D 1   1.00000     0.00000 
CORINA 4.3.0 0026  30.10.2019
  8  8  0  0  0  0  0  0  0  0999 V2000
  -32.2170    4.9022  -42.0947 C   0  0  0  0  0  0  0  0  0  0  0  0
  -33.7903    5.7926  -42.2456 S   0  0  0  0  0  0  0  0  0  0  0  0
  -34.9963    4.4557  -42.4657 C   0  0  0  0  0  0  0  0  0  0  0  0
  -36.4271    5.0338  -42.5595 C   0  0  0  0  0  0  0  0  0  0  0  0
  -37.0854    4.1536  -43.6516 C   0  0  0  0  0  0  0  0  0  0  0  0
  -35.9828    3.9350  -44.6224 N   0  0  0  0  0  0  0  0  0  0  0  0
  -34.7625    3.7407  -43.8095 C   0  0  0  0  0  0  0  0  0  0  0  0
  -36.2908    2.5675  -45.6018 X   0  0  0  0  0  0  0  0  0  0  0  0
  1  2  1  0  0  0  0
  2  3  1  0  0  0  0
  3  4  1  0  0  0  0
  3  7  1  0  0  0  0
  4  5  1  0  0  0  0
  5  6  1  0  0  0  0
  6  7  1  0  0  0  0
  6  8  1  0  0  0  0
M  END
> <Index>
15706

> <PropertyFieldDistance>
nan

$$$$
15419926
BBcorina  12272117083D 1   1.00000     0.00000 
CORINA 4.3.0 0026  30.10.2019
 13 14  0  0  0  0  0  0  0  0999 V2000
  -35.9479    3.4664  -44.1722 N   0  0  0  0  0  0  0  0  0  0  0  0
  -37.0290    4.3869  -43.7978 C   0  0  0  0  0  0  0  0  0  0  0  0
  -36.6587    5.1099  -42.5007 C   0  0  0  0  0  0  0  0  0  0  0  0
  -35.3534    5.8832  -42.7080 C   0  0  0  0  0  0  0  0  0  0  0  0
  -34.2558    4.9088  -43.1443 C   0  0  0  0  0  0  0  0  0  0  0  0
  -34.6958    4.1916  -44.4227 C   0  0  0  0  0  0  0  0  0  0  0  0
  -34.9519    6.5486  -41.4169 C   0  0  0  0  0  0  0  0  0  0  0  0
  -35.6412    6.4180  -40.4274 O   0  0  0  0  0  0  0  0  0  0  0  0
  -33.8271    7.2888  -41.3616 N   0  0  0  0  0  0  0  0  0  0  0  0
  -33.4367    7.9358  -40.1064 C   0  0  0  0  0  0  0  0  0  0  0  0
  -31.9526    8.2478  -39.9042 C   0  0  0  0  0  0  0  0  0  0  0  0
  -32.9420    9.3817  -40.1810 C   0  0  0  0  0  0  0  0  0  0  0  0
  -36.3897    2.5209  -45.5268 X   0  0  0  0  0  0  0  0  0  0  0  0
  1  2  1  0  0  0  0
  1  6  1  0  0  0  0
  1 13  1  0  0  0  0
  2  3  1  0  0  0  0
  3  4  1  0  0  0  0
  4  5  1  0  0  0  0
  4  7  1  0  0  0  0
  5  6  1  0  0  0  0
  7  8  2  0  0  0  0
  7  9  1  0  0  0  0
  9 10  1  0  0  0  0
 10 11  1  0  0  0  0
 10 12  1  0  0  0  0
 11 12  1  0  0  0  0
M  END
> <Index>
15711

> <PropertyFieldDistance>
nan

$$$$
12432936
BBcorina  12272117083D 1   1.00000     0.00000 
CORINA 4.3.0 0026  30.10.2019
 10 10  0  0  0  0  0  0  0  0999 V2000
  -31.8592    4.8786  -43.1431 C   0  0  0  0  0  0  0  0  0  0  0  0
  -33.0481    5.6309  -43.3930 O   0  0  0  0  0  0  0  0  0  0  0  0
  -34.2559    4.9088  -43.1443 C   0  0  0  0  0  0  0  0  0  0  0  0
  -35.3534    5.8831  -42.7079 C   0  0  0  0  0  0  0  0  0  0  0  0
  -36.6586    5.1099  -42.5007 C   0  0  0  0  0  0  0  0  0  0  0  0
  -37.0290    4.3869  -43.7977 C   0  0  0  0  0  0  0  0  0  0  0  0
  -38.3224    3.5965  -43.5893 C   0  0  0  0  0  0  0  0  0  0  0  0
  -35.9479    3.4664  -44.1723 N   0  0  0  0  0  0  0  0  0  0  0  0
  -34.6959    4.1916  -44.4226 C   0  0  0  0  0  0  0  0  0  0  0  0
  -36.3900    2.5211  -45.5270 X   0  0  0  0  0  0  0  0  0  0  0  0
  1  2  1  0  0  0  0
  2  3  1  0  0  0  0
  3  4  1  0  0  0  0
  3  9  1  0  0  0  0
  4  5  1  0  0  0  0
  5  6  1  0  0  0  0
  6  7  1  0  0  0  0
  6  8  1  0  0  0  0
  8  9  1  0  0  0  0
  8 10  1  0  0  0  0
M  END
> <Index>
15719

> <PropertyFieldDistance>
nan

$$$$
7116986
BBcorina  12272117083D 1   1.00000     0.00000 
CORINA 4.3.0 0026  30.10.2019
 11 11  0  0  0  0  0  0  0  0999 V2000
  -36.5830    0.8557  -46.8716 C   0  0  0  0  0  0  0  0  0  0  0  0
  -36.9541    1.8485  -45.7682 C   0  0  0  0  0  0  0  0  0  0  0  0
  -35.6980    2.4352  -45.1772 C   0  0  0  0  0  0  0  0  0  0  0  0
  -34.6129    2.0928  -45.5972 O   0  0  0  0  0  0  0  0  0  0  0  0
  -35.7805    3.3402  -44.1820 N   0  0  0  0  0  0  0  0  0  0  0  0
  -37.0283    3.8438  -43.5798 C   0  0  0  0  0  0  0  0  0  0  0  0
  -36.6541    5.2262  -42.9895 C   0  0  0  0  0  0  0  0  0  0  0  0
  -35.2166    4.9635  -42.4681 C   0  0  0  0  0  0  0  0  0  0  0  0
  -34.6409    3.9894  -43.5176 C   0  0  0  0  0  0  0  0  0  0  0  0
  -34.4399    6.2099  -42.4346 N   0  0  0  0  0  0  0  0  0  0  0  0
  -34.4697    6.9914  -43.9553 X   0  0  0  0  0  0  0  0  0  0  0  0
  1  2  1  0  0  0  0
  2  3  1  0  0  0  0
  3  4  2  0  0  0  0
  3  5  1  0  0  0  0
  5  6  1  0  0  0  0
  5  9  1  0  0  0  0
  6  7  1  0  0  0  0
  7  8  1  0  0  0  0
  8  9  1  0  0  0  0
  8 10  1  0  0  0  0
 10 11  1  0  0  0  0
M  END
> <Index>
15720

> <PropertyFieldDistance>
nan

$$$$
7117056
BBcorina  12272117083D 1   1.00000     0.00000 
CORINA 4.3.0 0026  30.10.2019
 14 15  0  0  0  0  0  0  0  0999 V2000
  -34.5112    5.4089  -41.5290 N   0  0  0  0  0  0  0  0  0  0  0  0
  -35.1885    5.2806  -42.8263 C   0  0  0  0  0  0  0  0  0  0  0  0
  -36.6823    4.9096  -42.6313 C   0  0  0  0  0  0  0  0  0  0  0  0
  -36.9976    4.1852  -43.9664 C   0  0  0  0  0  0  0  0  0  0  0  0
  -35.7730    3.4264  -44.2791 N   0  0  0  0  0  0  0  0  0  0  0  0
  -34.6333    4.0760  -43.6152 C   0  0  0  0  0  0  0  0  0  0  0  0
  -35.7080    2.3232  -45.0508 C   0  0  0  0  0  0  0  0  0  0  0  0
  -34.6405    1.7814  -45.2454 O   0  0  0  0  0  0  0  0  0  0  0  0
  -36.9618    1.7630  -45.6715 C   0  0  0  0  0  0  0  0  0  0  0  0
  -36.6254    0.5111  -46.5005 C   0  0  0  0  0  0  0  0  0  0  0  0
  -37.0419    0.8196  -47.9535 C   0  0  0  0  0  0  0  0  0  0  0  0
  -38.1191    1.9241  -47.8167 C   0  0  0  0  0  0  0  0  0  0  0  0
  -37.5709    2.7886  -46.6497 C   0  0  0  0  0  0  0  0  0  0  0  0
  -34.4514    7.0427  -41.0280 X   0  0  0  0  0  0  0  0  0  0  0  0
  1  2  1  0  0  0  0
  1 14  1  0  0  0  0
  2  3  1  0  0  0  0
  2  6  1  0  0  0  0
  3  4  1  0  0  0  0
  4  5  1  0  0  0  0
  5  6  1  0  0  0  0
  5  7  1  0  0  0  0
  7  8  2  0  0  0  0
  7  9  1  0  0  0  0
  9 10  1  0  0  0  0
  9 13  1  0  0  0  0
 10 11  1  0  0  0  0
 11 12  1  0  0  0  0
 12 13  1  0  0  0  0
M  END
> <Index>
15721

> <PropertyFieldDistance>
nan

$$$$
11246808
BBcorina  12272117083D 1   1.00000     0.00000 
CORINA 4.3.0 0026  30.10.2019
 11 11  0  0  0  0  0  0  0  0999 V2000
  -38.1039    2.2306  -45.3730 F   0  0  0  0  0  0  0  0  0  0  0  0
  -36.8489    1.6584  -45.6074 C   0  0  0  0  0  0  0  0  0  0  0  0
  -36.6517    0.5900  -44.7261 F   0  0  0  0  0  0  0  0  0  0  0  0
  -35.7596    2.7097  -45.3863 C   0  0  0  0  0  0  0  0  0  0  0  0
  -35.8242    3.1982  -44.0024 N   0  0  0  0  0  0  0  0  0  0  0  0
  -37.0460    4.0006  -43.7803 C   0  0  0  0  0  0  0  0  0  0  0  0
  -36.6262    5.0856  -42.7574 C   0  0  0  0  0  0  0  0  0  0  0  0
  -35.1786    5.4043  -43.2151 C   0  0  0  0  0  0  0  0  0  0  0  0
  -34.6508    4.0309  -43.6806 C   0  0  0  0  0  0  0  0  0  0  0  0
  -34.3795    5.9146  -42.0930 N   0  0  0  0  0  0  0  0  0  0  0  0
  -34.3452    7.6242  -42.0926 X   0  0  0  0  0  0  0  0  0  0  0  0
  1  2  1  0  0  0  0
  2  3  1  0  0  0  0
  2  4  1  0  0  0  0
  4  5  1  0  0  0  0
  5  6  1  0  0  0  0
  5  9  1  0  0  0  0
  6  7  1  0  0  0  0
  7  8  1  0  0  0  0
  8  9  1  0  0  0  0
  8 10  1  0  0  0  0
 10 11  1  0  0  0  0
M  END
> <Index>
15723

> <PropertyFieldDistance>
nan

$$$$
12864044
BBcorina  12272117083D 1   1.00000     0.00000 
CORINA 4.3.0 0026  30.10.2019
 12 12  0  0  0  0  0  0  0  0999 V2000
  -39.3314    4.3930  -42.4412 C   0  0  0  0  0  0  0  0  0  0  0  0
  -38.4459    3.9821  -43.6194 C   0  0  0  0  0  0  0  0  0  0  0  0
  -36.9774    4.0220  -43.1920 C   0  0  0  0  0  0  0  0  0  0  0  0
  -36.5939    5.4542  -42.8102 C   0  0  0  0  0  0  0  0  0  0  0  0
  -35.2023    5.4989  -42.4835 O   0  0  0  0  0  0  0  0  0  0  0  0
  -34.3473    5.0693  -43.5463 C   0  0  0  0  0  0  0  0  0  0  0  0
  -34.7080    3.6332  -43.9356 C   0  0  0  0  0  0  0  0  0  0  0  0
  -36.1294    3.5737  -44.3061 N   0  0  0  0  0  0  0  0  0  0  0  0
  -36.5038    2.2215  -44.7416 C   0  0  0  0  0  0  0  0  0  0  0  0
  -35.8258    1.9099  -46.0772 C   0  0  0  0  0  0  0  0  0  0  0  0
  -36.2001    0.5578  -46.5126 N   0  0  0  0  0  0  0  0  0  0  0  0
  -35.4621    0.1683  -48.0052 X   0  0  0  0  0  0  0  0  0  0  0  0
  1  2  1  0  0  0  0
  2  3  1  0  0  0  0
  3  4  1  0  0  0  0
  3  8  1  0  0  0  0
  4  5  1  0  0  0  0
  5  6  1  0  0  0  0
  6  7  1  0  0  0  0
  7  8  1  0  0  0  0
  8  9  1  0  0  0  0
  9 10  1  0  0  0  0
 10 11  1  0  0  0  0
 11 12  1  0  0  0  0
M  END
> <Index>
15751

> <PropertyFieldDistance>
nan

$$$$
14422576
BBcorina  12272117083D 1   1.00000     0.00000 
CORINA 4.3.0 0026  30.10.2019
 11 12  0  0  0  0  0  0  0  0999 V2000
  -34.8792    1.5318  -40.8703 N   0  0  0  0  0  0  0  0  0  0  0  0
  -35.6631    2.0539  -41.9977 C   0  0  0  0  0  0  0  0  0  0  0  0
  -35.6601    3.5830  -41.9548 C   0  0  0  0  0  0  0  0  0  0  0  0
  -36.5135    4.1266  -43.1044 C   0  0  0  0  0  0  0  0  0  0  0  0
  -35.9623    3.6059  -44.4301 C   0  0  0  0  0  0  0  0  0  0  0  0
  -36.6306    4.2327  -45.6603 C   0  0  0  0  0  0  0  0  0  0  0  0
  -35.2310    4.2760  -46.2975 C   0  0  0  0  0  0  0  0  0  0  0  0
  -34.6648    4.2980  -44.8672 C   0  0  0  0  0  0  0  0  0  0  0  0
  -35.8882    2.0815  -44.4862 C   0  0  0  0  0  0  0  0  0  0  0  0
  -35.0459    1.5737  -43.3124 C   0  0  0  0  0  0  0  0  0  0  0  0
  -33.2913    2.1663  -40.8821 X   0  0  0  0  0  0  0  0  0  0  0  0
  1  2  1  0  0  0  0
  1 11  1  0  0  0  0
  2  3  1  0  0  0  0
  2 10  1  0  0  0  0
  3  4  1  0  0  0  0
  4  5  1  0  0  0  0
  5  6  1  0  0  0  0
  5  8  1  0  0  0  0
  5  9  1  0  0  0  0
  6  7  1  0  0  0  0
  7  8  1  0  0  0  0
  9 10  1  0  0  0  0
M  END
> <Index>
15778

> <PropertyFieldDistance>
nan

$$$$
14185844
BBcorina  12272117083D 1   1.00000     0.00000 
CORINA 4.3.0 0026  30.10.2019
  9  9  0  0  0  0  0  0  0  0999 V2000
  -38.7603    3.0428  -44.8668 N   0  0  0  0  0  0  0  0  0  0  0  0
  -38.2786    3.5650  -43.5810 C   0  0  0  0  0  0  0  0  0  0  0  0
  -37.0422    4.4353  -43.8149 C   0  0  0  0  0  0  0  0  0  0  0  0
  -36.4465    4.8918  -42.4646 C   0  0  0  0  0  0  0  0  0  0  0  0
  -34.9305    4.8787  -42.7683 C   0  0  0  0  0  0  0  0  0  0  0  0
  -34.7841    3.8845  -43.8992 C   0  0  0  0  0  0  0  0  0  0  0  0
  -33.7395    3.3744  -44.2448 O   0  0  0  0  0  0  0  0  0  0  0  0
  -35.9848    3.6515  -44.4643 N   0  0  0  0  0  0  0  0  0  0  0  0
  -40.1445    2.0625  -44.6503 X   0  0  0  0  0  0  0  0  0  0  0  0
  1  2  1  0  0  0  0
  1  9  1  0  0  0  0
  2  3  1  0  0  0  0
  3  4  1  0  0  0  0
  3  8  1  0  0  0  0
  4  5  1  0  0  0  0
  5  6  1  0  0  0  0
  6  7  2  0  0  0  0
  6  8  1  0  0  0  0
M  END
> <Index>
15812

> <PropertyFieldDistance>
nan

$$$$
16516286
BBcorina  12272117083D 1   1.00000     0.00000 
CORINA 4.3.0 0026  30.10.2019
 11 12  0  0  0  0  0  0  0  0999 V2000
  -32.4277    3.2485  -45.0871 C   0  0  0  0  0  0  0  0  0  0  0  0
  -33.9331    3.2813  -45.0266 C   0  0  0  0  0  0  0  0  0  0  0  0
  -34.8088    2.5837  -45.8694 C   0  0  0  0  0  0  0  0  0  0  0  0
  -36.0376    2.8623  -45.5067 N   0  0  0  0  0  0  0  0  0  0  0  0
  -35.9811    3.7477  -44.4315 N   0  0  0  0  0  0  0  0  0  0  0  0
  -37.0918    4.3454  -43.6839 C   0  0  0  0  0  0  0  0  0  0  0  0
  -36.5389    4.9004  -42.3651 C   0  0  0  0  0  0  0  0  0  0  0  0
  -35.3581    5.7333  -42.6339 N   0  0  0  0  0  0  0  0  0  0  0  0
  -34.2114    4.9094  -43.0555 C   0  0  0  0  0  0  0  0  0  0  0  0
  -34.6764    3.9903  -44.1575 C   0  0  0  0  0  0  0  0  0  0  0  0
  -34.9589    6.6881  -41.2724 X   0  0  0  0  0  0  0  0  0  0  0  0
  1  2  1  0  0  0  0
  2  3  1  0  0  0  0
  2 10  2  0  0  0  0
  3  4  2  0  0  0  0
  4  5  1  0  0  0  0
  5  6  1  0  0  0  0
  5 10  1  0  0  0  0
  6  7  1  0  0  0  0
  7  8  1  0  0  0  0
  8  9  1  0  0  0  0
  8 11  1  0  0  0  0
  9 10  1  0  0  0  0
M  END
> <Index>
15829

> <PropertyFieldDistance>
nan

$$$$
9155662
BBcorina  12272117083D 1   1.00000     0.00000 
CORINA 4.3.0 0026  30.10.2019
 11 11  0  0  0  0  0  0  0  0999 V2000
  -38.2944    7.7161  -40.4383 C   0  0  0  0  0  0  0  0  0  0  0  0
  -37.3511    6.7396  -40.8840 O   0  0  0  0  0  0  0  0  0  0  0  0
  -37.6833    6.1405  -42.1380 C   0  0  0  0  0  0  0  0  0  0  0  0
  -36.6101    5.1169  -42.5144 C   0  0  0  0  0  0  0  0  0  0  0  0
  -37.0250    4.3873  -43.7948 C   0  0  0  0  0  0  0  0  0  0  0  0
  -35.9555    3.4606  -44.1930 N   0  0  0  0  0  0  0  0  0  0  0  0
  -34.6941    4.1836  -44.4110 C   0  0  0  0  0  0  0  0  0  0  0  0
  -34.3026    4.9152  -43.1244 C   0  0  0  0  0  0  0  0  0  0  0  0
  -33.0331    5.7340  -43.3674 C   0  0  0  0  0  0  0  0  0  0  0  0
  -35.3668    5.7881  -42.7357 O   0  0  0  0  0  0  0  0  0  0  0  0
  -36.4010    2.5722  -45.5845 X   0  0  0  0  0  0  0  0  0  0  0  0
  1  2  1  0  0  0  0
  2  3  1  0  0  0  0
  3  4  1  0  0  0  0
  4  5  1  0  0  0  0
  4 10  1  0  0  0  0
  5  6  1  0  0  0  0
  6  7  1  0  0  0  0
  6 11  1  0  0  0  0
  7  8  1  0  0  0  0
  8  9  1  0  0  0  0
  8 10  1  0  0  0  0
M  END
> <Index>
15849

> <PropertyFieldDistance>
nan

$$$$
9406078
BBcorina  12272117083D 1   1.00000     0.00000 
CORINA 4.3.0 0026  30.10.2019
 14 15  0  0  0  0  0  0  0  0999 V2000
  -35.1206    0.4136  -43.8048 C   0  0  0  0  0  0  0  0  0  0  0  0
  -35.9644    1.0544  -44.8164 N   0  0  0  0  0  0  0  0  0  0  0  0
  -36.5464    0.4242  -45.9236 N   0  0  0  0  0  0  0  0  0  0  0  0
  -37.2270    1.3166  -46.5961 C   0  0  0  0  0  0  0  0  0  0  0  0
  -37.1089    2.5451  -45.9400 C   0  0  0  0  0  0  0  0  0  0  0  0
  -36.3193    2.3592  -44.8463 C   0  0  0  0  0  0  0  0  0  0  0  0
  -35.9494    3.3336  -43.9235 N   0  0  0  0  0  0  0  0  0  0  0  0
  -37.0464    4.2817  -43.6911 C   0  0  0  0  0  0  0  0  0  0  0  0
  -36.6586    5.2476  -42.5692 C   0  0  0  0  0  0  0  0  0  0  0  0
  -35.3852    5.9993  -42.9670 C   0  0  0  0  0  0  0  0  0  0  0  0
  -34.2719    4.9870  -43.2505 C   0  0  0  0  0  0  0  0  0  0  0  0
  -34.7290    4.0286  -44.3525 C   0  0  0  0  0  0  0  0  0  0  0  0
  -33.0631    5.6973  -43.6886 N   0  0  0  0  0  0  0  0  0  0  0  0
  -31.6573    4.7900  -43.3354 X   0  0  0  0  0  0  0  0  0  0  0  0
  1  2  1  0  0  0  0
  2  3  1  0  0  0  0
  2  6  1  0  0  0  0
  3  4  2  0  0  0  0
  4  5  1  0  0  0  0
  5  6  2  0  0  0  0
  6  7  1  0  0  0  0
  7  8  1  0  0  0  0
  7 12  1  0  0  0  0
  8  9  1  0  0  0  0
  9 10  1  0  0  0  0
 10 11  1  0  0  0  0
 11 12  1  0  0  0  0
 11 13  1  0  0  0  0
 13 14  1  0  0  0  0
M  END
> <Index>
15860

> <PropertyFieldDistance>
nan

$$$$
7345106
BBcorina  12272117083D 1   1.00000     0.00000 
CORINA 4.3.0 0026  30.10.2019
 15 16  0  0  0  0  0  0  0  0999 V2000
  -37.1852    0.9131  -43.0971 O   0  0  0  0  0  0  0  0  0  0  0  0
  -37.5365    1.5296  -44.3374 C   0  0  0  0  0  0  0  0  0  0  0  0
  -37.9428    0.4525  -45.3452 C   0  0  0  0  0  0  0  0  0  0  0  0
  -38.3191    1.1127  -46.6732 C   0  0  0  0  0  0  0  0  0  0  0  0
  -37.1179    1.8905  -47.2145 C   0  0  0  0  0  0  0  0  0  0  0  0
  -36.7117    2.9676  -46.2067 C   0  0  0  0  0  0  0  0  0  0  0  0
  -36.3354    2.3075  -44.8787 C   0  0  0  0  0  0  0  0  0  0  0  0
  -35.9453    3.3417  -43.9110 N   0  0  0  0  0  0  0  0  0  0  0  0
  -37.0433    4.2898  -43.6827 C   0  0  0  0  0  0  0  0  0  0  0  0
  -36.6554    5.2624  -42.5667 C   0  0  0  0  0  0  0  0  0  0  0  0
  -35.3833    6.0133  -42.9700 C   0  0  0  0  0  0  0  0  0  0  0  0
  -34.2692    5.0007  -43.2489 C   0  0  0  0  0  0  0  0  0  0  0  0
  -34.7262    4.0356  -44.3451 C   0  0  0  0  0  0  0  0  0  0  0  0
  -34.9742    6.9073  -41.8786 N   0  0  0  0  0  0  0  0  0  0  0  0
  -34.6585    6.0242  -40.4487 X   0  0  0  0  0  0  0  0  0  0  0  0
  1  2  1  0  0  0  0
  2  3  1  0  0  0  0
  2  7  1  0  0  0  0
  3  4  1  0  0  0  0
  4  5  1  0  0  0  0
  5  6  1  0  0  0  0
  6  7  1  0  0  0  0
  7  8  1  0  0  0  0
  8  9  1  0  0  0  0
  8 13  1  0  0  0  0
  9 10  1  0  0  0  0
 10 11  1  0  0  0  0
 11 12  1  0  0  0  0
 11 14  1  0  0  0  0
 12 13  1  0  0  0  0
 14 15  1  0  0  0  0
M  END
> <Index>
15880

> <PropertyFieldDistance>
nan

$$$$
9477512
BBcorina  12272117083D 1   1.00000     0.00000 
CORINA 4.3.0 0026  30.10.2019
 11 12  0  0  0  0  0  0  0  0999 V2000
  -36.4491    4.1044  -41.3787 C   0  0  0  0  0  0  0  0  0  0  0  0
  -36.6101    5.1169  -42.5144 C   0  0  0  0  0  0  0  0  0  0  0  0
  -37.0250    4.3873  -43.7948 C   0  0  0  0  0  0  0  0  0  0  0  0
  -35.9555    3.4605  -44.1931 N   0  0  0  0  0  0  0  0  0  0  0  0
  -34.6941    4.1836  -44.4110 C   0  0  0  0  0  0  0  0  0  0  0  0
  -34.3026    4.9153  -43.1244 C   0  0  0  0  0  0  0  0  0  0  0  0
  -35.3667    5.7880  -42.7357 O   0  0  0  0  0  0  0  0  0  0  0  0
  -33.0335    5.7341  -43.3684 C   0  0  0  0  0  0  0  0  0  0  0  0
  -32.4799    6.5455  -42.1953 C   0  0  0  0  0  0  0  0  0  0  0  0
  -31.7540    5.2813  -42.6623 C   0  0  0  0  0  0  0  0  0  0  0  0
  -36.4010    2.5722  -45.5846 X   0  0  0  0  0  0  0  0  0  0  0  0
  1  2  1  0  0  0  0
  2  3  1  0  0  0  0
  2  7  1  0  0  0  0
  3  4  1  0  0  0  0
  4  5  1  0  0  0  0
  4 11  1  0  0  0  0
  5  6  1  0  0  0  0
  6  7  1  0  0  0  0
  6  8  1  0  0  0  0
  8  9  1  0  0  0  0
  8 10  1  0  0  0  0
  9 10  1  0  0  0  0
M  END
> <Index>
15889

> <PropertyFieldDistance>
nan

$$$$
12129904
BBcorina  12272117083D 1   1.00000     0.00000 
CORINA 4.3.0 0026  30.10.2019
 12 12  0  0  0  0  0  0  0  0999 V2000
  -35.6938    9.6315  -39.6968 C   0  0  0  0  0  0  0  0  0  0  0  0
  -35.1100    8.3321  -39.9779 O   0  0  0  0  0  0  0  0  0  0  0  0
  -35.4687    7.7375  -41.1314 C   0  0  0  0  0  0  0  0  0  0  0  0
  -36.2482    8.2894  -41.8826 O   0  0  0  0  0  0  0  0  0  0  0  0
  -34.9633    6.5301  -41.4528 N   0  0  0  0  0  0  0  0  0  0  0  0
  -35.3535    5.8833  -42.7079 C   0  0  0  0  0  0  0  0  0  0  0  0
  -36.6585    5.1099  -42.5008 C   0  0  0  0  0  0  0  0  0  0  0  0
  -37.0291    4.3869  -43.7977 C   0  0  0  0  0  0  0  0  0  0  0  0
  -35.9480    3.4664  -44.1723 N   0  0  0  0  0  0  0  0  0  0  0  0
  -34.6958    4.1916  -44.4226 C   0  0  0  0  0  0  0  0  0  0  0  0
  -34.2559    4.9088  -43.1442 C   0  0  0  0  0  0  0  0  0  0  0  0
  -36.3899    2.5211  -45.5270 X   0  0  0  0  0  0  0  0  0  0  0  0
  1  2  1  0  0  0  0
  2  3  1  0  0  0  0
  3  4  2  0  0  0  0
  3  5  1  0  0  0  0
  5  6  1  0  0  0  0
  6  7  1  0  0  0  0
  6 11  1  0  0  0  0
  7  8  1  0  0  0  0
  8  9  1  0  0  0  0
  9 10  1  0  0  0  0
  9 12  1  0  0  0  0
 10 11  1  0  0  0  0
M  END
> <Index>
15936

> <PropertyFieldDistance>
nan

$$$$
9193518
BBcorina  12272117083D 1   1.00000     0.00000 
CORINA 4.3.0 0026  30.10.2019
 11 11  0  0  0  0  0  0  0  0999 V2000
  -36.4088    1.4127  -44.7293 C   0  0  0  0  0  0  0  0  0  0  0  0
  -36.2434    2.7348  -45.4815 C   0  0  0  0  0  0  0  0  0  0  0  0
  -35.8628    3.7891  -44.5380 N   0  0  0  0  0  0  0  0  0  0  0  0
  -36.9011    4.5909  -43.8693 C   0  0  0  0  0  0  0  0  0  0  0  0
  -36.9214    4.2022  -42.3832 C   0  0  0  0  0  0  0  0  0  0  0  0
  -35.8952    5.0041  -41.6056 C   0  0  0  0  0  0  0  0  0  0  0  0
  -34.5145    4.6972  -41.9576 N   0  0  0  0  0  0  0  0  0  0  0  0
  -34.1753    5.1252  -43.3210 C   0  0  0  0  0  0  0  0  0  0  0  0
  -34.5727    4.0290  -44.2867 C   0  0  0  0  0  0  0  0  0  0  0  0
  -33.7171    3.3659  -44.8336 O   0  0  0  0  0  0  0  0  0  0  0  0
  -33.4286    5.3646  -40.8177 X   0  0  0  0  0  0  0  0  0  0  0  0
  1  2  1  0  0  0  0
  2  3  1  0  0  0  0
  3  4  1  0  0  0  0
  3  9  1  0  0  0  0
  4  5  1  0  0  0  0
  5  6  1  0  0  0  0
  6  7  1  0  0  0  0
  7  8  1  0  0  0  0
  7 11  1  0  0  0  0
  8  9  1  0  0  0  0
  9 10  2  0  0  0  0
M  END
> <Index>
15938

> <PropertyFieldDistance>
nan

$$$$
9107808
BBcorina  12272117083D 1   1.00000     0.00000 
CORINA 4.3.0 0026  30.10.2019
 12 12  0  0  0  0  0  0  0  0999 V2000
  -37.3802    5.4008  -44.6050 C   0  0  0  0  0  0  0  0  0  0  0  0
  -37.0798    4.3413  -43.5429 C   0  0  0  0  0  0  0  0  0  0  0  0
  -38.3677    3.5961  -43.1868 C   0  0  0  0  0  0  0  0  0  0  0  0
  -36.5183    5.0185  -42.2905 C   0  0  0  0  0  0  0  0  0  0  0  0
  -35.2612    5.7008  -42.6275 N   0  0  0  0  0  0  0  0  0  0  0  0
  -34.2723    4.7483  -43.1513 C   0  0  0  0  0  0  0  0  0  0  0  0
  -34.8338    4.0711  -44.4037 C   0  0  0  0  0  0  0  0  0  0  0  0
  -36.0909    3.3887  -44.0666 N   0  0  0  0  0  0  0  0  0  0  0  0
  -36.6231    2.6620  -45.2271 C   0  0  0  0  0  0  0  0  0  0  0  0
  -35.6764    1.5159  -45.5892 C   0  0  0  0  0  0  0  0  0  0  0  0
  -35.6533    0.5630  -44.5245 O   0  0  0  0  0  0  0  0  0  0  0  0
  -34.6417    6.5466  -41.2767 X   0  0  0  0  0  0  0  0  0  0  0  0
  1  2  1  0  0  0  0
  2  3  1  0  0  0  0
  2  4  1  0  0  0  0
  2  8  1  0  0  0  0
  4  5  1  0  0  0  0
  5  6  1  0  0  0  0
  5 12  1  0  0  0  0
  6  7  1  0  0  0  0
  7  8  1  0  0  0  0
  8  9  1  0  0  0  0
  9 10  1  0  0  0  0
 10 11  1  0  0  0  0
M  END
> <Index>
15939

> <PropertyFieldDistance>
nan

$$$$
17835430
BBcorina  12272117083D 1   1.00000     0.00000 
CORINA 4.3.0 0026  30.10.2019
 12 13  0  0  0  0  0  0  0  0999 V2000
  -41.4250    2.6500  -42.8343 C   0  0  0  0  0  0  0  0  0  0  0  0
  -40.6985    3.8964  -43.3438 C   0  0  0  0  0  0  0  0  0  0  0  0
  -39.2634    3.9028  -42.8134 C   0  0  0  0  0  0  0  0  0  0  0  0
  -38.5766    5.2082  -43.2191 C   0  0  0  0  0  0  0  0  0  0  0  0
  -37.1539    5.2326  -42.6533 C   0  0  0  0  0  0  0  0  0  0  0  0
  -36.3850    4.0180  -43.1724 C   0  0  0  0  0  0  0  0  0  0  0  0
  -34.8964    4.0377  -42.8102 C   0  0  0  0  0  0  0  0  0  0  0  0
  -34.7226    3.4794  -44.2301 C   0  0  0  0  0  0  0  0  0  0  0  0
  -35.9961    4.1331  -44.5872 N   0  0  0  0  0  0  0  0  0  0  0  0
  -37.0754    2.6961  -42.8379 C   0  0  0  0  0  0  0  0  0  0  0  0
  -38.4995    2.7146  -43.4002 C   0  0  0  0  0  0  0  0  0  0  0  0
  -36.9536    3.1135  -45.5710 X   0  0  0  0  0  0  0  0  0  0  0  0
  1  2  1  0  0  0  0
  2  3  1  0  0  0  0
  3  4  1  0  0  0  0
  3 11  1  0  0  0  0
  4  5  1  0  0  0  0
  5  6  1  0  0  0  0
  6  7  1  0  0  0  0
  6  9  1  0  0  0  0
  6 10  1  0  0  0  0
  7  8  1  0  0  0  0
  8  9  1  0  0  0  0
  9 12  1  0  0  0  0
 10 11  1  0  0  0  0
M  END
> <Index>
15943

> <PropertyFieldDistance>
nan

$$$$
17835464
BBcorina  12272117083D 1   1.00000     0.00000 
CORINA 4.3.0 0026  30.10.2019
  9  9  0  0  0  0  0  0  0  0999 V2000
  -40.3154    2.5790  -44.9828 C   0  0  0  0  0  0  0  0  0  0  0  0
  -39.0292    3.3959  -45.1212 C   0  0  0  0  0  0  0  0  0  0  0  0
  -38.4731    3.7110  -43.7311 C   0  0  0  0  0  0  0  0  0  0  0  0
  -37.1869    4.5279  -43.8695 C   0  0  0  0  0  0  0  0  0  0  0  0
  -37.3634    5.7767  -44.7357 C   0  0  0  0  0  0  0  0  0  0  0  0
  -36.4760    4.7969  -42.5309 C   0  0  0  0  0  0  0  0  0  0  0  0
  -35.1655    4.4910  -43.2783 C   0  0  0  0  0  0  0  0  0  0  0  0
  -36.0008    3.7170  -44.2231 N   0  0  0  0  0  0  0  0  0  0  0  0
  -35.5228    4.0030  -45.8398 X   0  0  0  0  0  0  0  0  0  0  0  0
  1  2  1  0  0  0  0
  2  3  1  0  0  0  0
  3  4  1  0  0  0  0
  4  5  1  0  0  0  0
  4  6  1  0  0  0  0
  4  8  1  0  0  0  0
  6  7  1  0  0  0  0
  7  8  1  0  0  0  0
  8  9  1  0  0  0  0
M  END
> <Index>
15944

> <PropertyFieldDistance>
nan

$$$$
15417622
BBcorina  12272117083D 1   1.00000     0.00000 
CORINA 4.3.0 0026  30.10.2019
 12 13  0  0  0  0  0  0  0  0999 V2000
  -39.3429    6.5170  -43.3625 C   0  0  0  0  0  0  0  0  0  0  0  0
  -37.9700    7.1128  -43.0440 C   0  0  0  0  0  0  0  0  0  0  0  0
  -38.1397    8.5605  -42.5792 C   0  0  0  0  0  0  0  0  0  0  0  0
  -37.3061    6.2963  -41.9337 C   0  0  0  0  0  0  0  0  0  0  0  0
  -37.1775    4.8373  -42.3815 C   0  0  0  0  0  0  0  0  0  0  0  0
  -36.3720    4.7777  -43.6766 C   0  0  0  0  0  0  0  0  0  0  0  0
  -34.8652    4.9885  -43.4736 C   0  0  0  0  0  0  0  0  0  0  0  0
  -34.6729    3.8419  -44.4837 C   0  0  0  0  0  0  0  0  0  0  0  0
  -36.0352    3.4062  -44.1012 N   0  0  0  0  0  0  0  0  0  0  0  0
  -36.9649    5.6356  -44.7910 C   0  0  0  0  0  0  0  0  0  0  0  0
  -37.0973    7.0803  -44.3000 C   0  0  0  0  0  0  0  0  0  0  0  0
  -36.9420    2.9509  -45.4776 X   0  0  0  0  0  0  0  0  0  0  0  0
  1  2  1  0  0  0  0
  2  3  1  0  0  0  0
  2  4  1  0  0  0  0
  2 11  1  0  0  0  0
  4  5  1  0  0  0  0
  5  6  1  0  0  0  0
  6  7  1  0  0  0  0
  6  9  1  0  0  0  0
  6 10  1  0  0  0  0
  7  8  1  0  0  0  0
  8  9  1  0  0  0  0
  9 12  1  0  0  0  0
 10 11  1  0  0  0  0
M  END
> <Index>
15945

> <PropertyFieldDistance>
nan

$$$$
11986008
BBcorina  12272117083D 1   1.00000     0.00000 
CORINA 4.3.0 0026  30.10.2019
 11 12  0  0  0  0  0  0  0  0999 V2000
  -34.0320    3.9483  -42.1106 O   0  0  0  0  0  0  0  0  0  0  0  0
  -34.2559    4.9090  -43.1444 C   0  0  0  0  0  0  0  0  0  0  0  0
  -35.3536    5.8832  -42.7079 C   0  0  0  0  0  0  0  0  0  0  0  0
  -36.6588    5.1099  -42.5006 C   0  0  0  0  0  0  0  0  0  0  0  0
  -37.0291    4.3869  -43.7977 C   0  0  0  0  0  0  0  0  0  0  0  0
  -35.9480    3.4666  -44.1724 N   0  0  0  0  0  0  0  0  0  0  0  0
  -34.6955    4.1911  -44.4226 C   0  0  0  0  0  0  0  0  0  0  0  0
  -32.9632    5.6824  -43.4118 C   0  0  0  0  0  0  0  0  0  0  0  0
  -31.7403    4.8805  -43.8615 C   0  0  0  0  0  0  0  0  0  0  0  0
  -31.7962    5.4628  -42.4470 C   0  0  0  0  0  0  0  0  0  0  0  0
  -36.3900    2.5213  -45.5271 X   0  0  0  0  0  0  0  0  0  0  0  0
  1  2  1  0  0  0  0
  2  3  1  0  0  0  0
  2  7  1  0  0  0  0
  2  8  1  0  0  0  0
  3  4  1  0  0  0  0
  4  5  1  0  0  0  0
  5  6  1  0  0  0  0
  6  7  1  0  0  0  0
  6 11  1  0  0  0  0
  8  9  1  0  0  0  0
  8 10  1  0  0  0  0
  9 10  1  0  0  0  0
M  END
> <Index>
15957

> <PropertyFieldDistance>
nan

$$$$
7081850
BBcorina  12272117083D 1   1.00000     0.00000 
CORINA 4.3.0 0026  30.10.2019
 11 11  0  0  0  0  0  0  0  0999 V2000
  -31.2423    7.1800  -42.3929 C   0  0  0  0  0  0  0  0  0  0  0  0
  -32.4523    6.2894  -42.1034 C   0  0  0  0  0  0  0  0  0  0  0  0
  -32.0431    5.1683  -41.1462 C   0  0  0  0  0  0  0  0  0  0  0  0
  -32.9630    5.6821  -43.4116 C   0  0  0  0  0  0  0  0  0  0  0  0
  -34.2559    4.9088  -43.1443 C   0  0  0  0  0  0  0  0  0  0  0  0
  -35.3534    5.8832  -42.7079 C   0  0  0  0  0  0  0  0  0  0  0  0
  -36.6587    5.1099  -42.5007 C   0  0  0  0  0  0  0  0  0  0  0  0
  -37.0289    4.3869  -43.7977 C   0  0  0  0  0  0  0  0  0  0  0  0
  -35.9479    3.4664  -44.1723 N   0  0  0  0  0  0  0  0  0  0  0  0
  -34.6959    4.1916  -44.4227 C   0  0  0  0  0  0  0  0  0  0  0  0
  -36.3899    2.5210  -45.5270 X   0  0  0  0  0  0  0  0  0  0  0  0
  1  2  1  0  0  0  0
  2  3  1  0  0  0  0
  2  4  1  0  0  0  0
  4  5  1  0  0  0  0
  5  6  1  0  0  0  0
  5 10  1  0  0  0  0
  6  7  1  0  0  0  0
  7  8  1  0  0  0  0
  8  9  1  0  0  0  0
  9 10  1  0  0  0  0
  9 11  1  0  0  0  0
M  END
> <Index>
15969

> <PropertyFieldDistance>
nan

$$$$
6176084
BBcorina  12272117083D 1   1.00000     0.00000 
CORINA 4.3.0 0026  30.10.2019
 14 15  0  0  0  0  0  0  0  0999 V2000
  -34.9419   -0.2558  -46.9861 C   0  0  0  0  0  0  0  0  0  0  0  0
  -35.8349    0.7154  -46.2578 C   0  0  0  0  0  0  0  0  0  0  0  0
  -37.1233    0.7088  -46.4396 N   0  0  0  0  0  0  0  0  0  0  0  0
  -37.7365    1.9420  -45.4438 S   0  0  0  0  0  0  0  0  0  0  0  0
  -36.1939    2.4025  -44.8298 C   0  0  0  0  0  0  0  0  0  0  0  0
  -35.3372    1.5989  -45.4240 N   0  0  0  0  0  0  0  0  0  0  0  0
  -35.9156    3.4028  -43.9160 N   0  0  0  0  0  0  0  0  0  0  0  0
  -37.1557    4.0877  -43.4850 C   0  0  0  0  0  0  0  0  0  0  0  0
  -36.8717    5.3850  -42.7113 C   0  0  0  0  0  0  0  0  0  0  0  0
  -35.7248    5.2292  -41.7445 C   0  0  0  0  0  0  0  0  0  0  0  0
  -34.4779    5.6405  -42.4257 N   0  0  0  0  0  0  0  0  0  0  0  0
  -33.9391    4.6621  -43.2701 C   0  0  0  0  0  0  0  0  0  0  0  0
  -34.8986    4.2976  -44.4210 C   0  0  0  0  0  0  0  0  0  0  0  0
  -33.3140    6.1847  -41.2974 X   0  0  0  0  0  0  0  0  0  0  0  0
  1  2  1  0  0  0  0
  2  3  2  0  0  0  0
  2  6  1  0  0  0  0
  3  4  1  0  0  0  0
  4  5  1  0  0  0  0
  5  6  2  0  0  0  0
  5  7  1  0  0  0  0
  7  8  1  0  0  0  0
  7 13  1  0  0  0  0
  8  9  1  0  0  0  0
  9 10  1  0  0  0  0
 10 11  1  0  0  0  0
 11 12  1  0  0  0  0
 11 14  1  0  0  0  0
 12 13  1  0  0  0  0
M  END
> <Index>
15971

> <PropertyFieldDistance>
nan

$$$$
14040924
BBcorina  12272117083D 1   1.00000     0.00000 
CORINA 4.3.0 0026  30.10.2019
 10 10  0  0  0  0  0  0  0  0999 V2000
  -31.8751    5.0129  -43.8075 N   0  0  0  0  0  0  0  0  0  0  0  0
  -32.9819    5.6696  -43.4074 C   0  0  0  0  0  0  0  0  0  0  0  0
  -32.9526    6.8730  -43.2589 O   0  0  0  0  0  0  0  0  0  0  0  0
  -34.2559    4.9088  -43.1443 C   0  0  0  0  0  0  0  0  0  0  0  0
  -35.3534    5.8832  -42.7079 C   0  0  0  0  0  0  0  0  0  0  0  0
  -36.6587    5.1099  -42.5007 C   0  0  0  0  0  0  0  0  0  0  0  0
  -37.0291    4.3869  -43.7977 C   0  0  0  0  0  0  0  0  0  0  0  0
  -35.9479    3.4664  -44.1723 N   0  0  0  0  0  0  0  0  0  0  0  0
  -34.6958    4.1916  -44.4226 C   0  0  0  0  0  0  0  0  0  0  0  0
  -36.3899    2.5210  -45.5270 X   0  0  0  0  0  0  0  0  0  0  0  0
  1  2  1  0  0  0  0
  2  3  2  0  0  0  0
  2  4  1  0  0  0  0
  4  5  1  0  0  0  0
  4  9  1  0  0  0  0
  5  6  1  0  0  0  0
  6  7  1  0  0  0  0
  7  8  1  0  0  0  0
  8  9  1  0  0  0  0
  8 10  1  0  0  0  0
M  END
> <Index>
15973

> <PropertyFieldDistance>
nan

$$$$
12524552
BBcorina  12272117083D 1   1.00000     0.00000 
CORINA 4.3.0 0026  30.10.2019
  9  9  0  0  0  0  0  0  0  0999 V2000
  -34.9267    6.4323  -41.2874 C   0  0  0  0  0  0  0  0  0  0  0  0
  -35.2460    5.1676  -42.0870 C   0  0  0  0  0  0  0  0  0  0  0  0
  -35.1164    4.0466  -41.2600 F   0  0  0  0  0  0  0  0  0  0  0  0
  -36.6792    5.2474  -42.6200 C   0  0  0  0  0  0  0  0  0  0  0  0
  -36.9728    4.0089  -43.4698 C   0  0  0  0  0  0  0  0  0  0  0  0
  -36.0190    3.9412  -44.5844 N   0  0  0  0  0  0  0  0  0  0  0  0
  -34.6395    3.8164  -44.0970 C   0  0  0  0  0  0  0  0  0  0  0  0
  -34.2768    5.0496  -43.2665 C   0  0  0  0  0  0  0  0  0  0  0  0
  -36.4108    2.6619  -45.6492 X   0  0  0  0  0  0  0  0  0  0  0  0
  1  2  1  0  0  0  0
  2  3  1  0  0  0  0
  2  4  1  0  0  0  0
  2  8  1  0  0  0  0
  4  5  1  0  0  0  0
  5  6  1  0  0  0  0
  6  7  1  0  0  0  0
  6  9  1  0  0  0  0
  7  8  1  0  0  0  0
M  END
> <Index>
15978

> <PropertyFieldDistance>
nan

$$$$
16895942
BBcorina  12272117083D 1   1.00000     0.00000 
CORINA 4.3.0 0026  30.10.2019
 13 14  0  0  0  0  0  0  0  0999 V2000
  -36.0087    3.6127  -44.3879 N   0  0  0  0  0  0  0  0  0  0  0  0
  -37.0095    4.4890  -43.7635 C   0  0  0  0  0  0  0  0  0  0  0  0
  -36.5701    4.8249  -42.3363 C   0  0  0  0  0  0  0  0  0  0  0  0
  -35.2533    5.4763  -42.3726 N   0  0  0  0  0  0  0  0  0  0  0  0
  -34.2525    4.6000  -42.9970 C   0  0  0  0  0  0  0  0  0  0  0  0
  -34.6919    4.2640  -44.4241 C   0  0  0  0  0  0  0  0  0  0  0  0
  -34.8301    5.8830  -41.0259 C   0  0  0  0  0  0  0  0  0  0  0  0
  -33.4055    6.4431  -41.0845 C   0  0  0  0  0  0  0  0  0  0  0  0
  -33.0045    6.9351  -39.6904 C   0  0  0  0  0  0  0  0  0  0  0  0
  -34.0195    7.9775  -39.2141 C   0  0  0  0  0  0  0  0  0  0  0  0
  -35.3271    7.4010  -39.2125 O   0  0  0  0  0  0  0  0  0  0  0  0
  -35.7745    6.9660  -40.4981 C   0  0  0  0  0  0  0  0  0  0  0  0
  -36.5014    3.1392  -45.9555 X   0  0  0  0  0  0  0  0  0  0  0  0
  1  2  1  0  0  0  0
  1  6  1  0  0  0  0
  1 13  1  0  0  0  0
  2  3  1  0  0  0  0
  3  4  1  0  0  0  0
  4  5  1  0  0  0  0
  4  7  1  0  0  0  0
  5  6  1  0  0  0  0
  7  8  1  0  0  0  0
  7 12  1  0  0  0  0
  8  9  1  0  0  0  0
  9 10  1  0  0  0  0
 10 11  1  0  0  0  0
 11 12  1  0  0  0  0
M  END
> <Index>
15981

> <PropertyFieldDistance>
nan

$$$$
16640782
BBcorina  12272117083D 1   1.00000     0.00000 
CORINA 4.3.0 0026  30.10.2019
 11 12  0  0  0  0  0  0  0  0999 V2000
  -36.8902    2.1400  -45.9763 C   0  0  0  0  0  0  0  0  0  0  0  0
  -35.6897    2.3901  -45.1004 C   0  0  0  0  0  0  0  0  0  0  0  0
  -34.6537    1.7945  -45.3069 O   0  0  0  0  0  0  0  0  0  0  0  0
  -35.7673    3.2760  -44.0876 N   0  0  0  0  0  0  0  0  0  0  0  0
  -36.9450    4.0821  -43.7008 C   0  0  0  0  0  0  0  0  0  0  0  0
  -36.4938    4.8883  -42.4435 C   0  0  0  0  0  0  0  0  0  0  0  0
  -35.5030    3.8465  -41.8076 C   0  0  0  0  0  0  0  0  0  0  0  0
  -34.6816    3.6417  -43.1307 C   0  0  0  0  0  0  0  0  0  0  0  0
  -34.3584    5.1294  -43.4717 C   0  0  0  0  0  0  0  0  0  0  0  0
  -35.5298    5.8990  -42.9878 N   0  0  0  0  0  0  0  0  0  0  0  0
  -36.2390    6.7987  -44.2574 X   0  0  0  0  0  0  0  0  0  0  0  0
  1  2  1  0  0  0  0
  2  3  2  0  0  0  0
  2  4  1  0  0  0  0
  4  5  1  0  0  0  0
  4  8  1  0  0  0  0
  5  6  1  0  0  0  0
  6  7  1  0  0  0  0
  6 10  1  0  0  0  0
  7  8  1  0  0  0  0
  8  9  1  0  0  0  0
  9 10  1  0  0  0  0
 10 11  1  0  0  0  0
M  END
> <Index>
15988

> <PropertyFieldDistance>
nan

$$$$
14594838
BBcorina  12272117083D 1   1.00000     0.00000 
CORINA 4.3.0 0026  30.10.2019
 11 11  0  0  0  0  0  0  0  0999 V2000
  -33.2728    7.5091  -39.7560 C   0  0  0  0  0  0  0  0  0  0  0  0
  -33.5407    6.3006  -40.6553 C   0  0  0  0  0  0  0  0  0  0  0  0
  -32.5508    6.2438  -41.6843 O   0  0  0  0  0  0  0  0  0  0  0  0
  -34.9273    6.4334  -41.2883 C   0  0  0  0  0  0  0  0  0  0  0  0
  -35.2463    5.1683  -42.0875 C   0  0  0  0  0  0  0  0  0  0  0  0
  -36.6796    5.2477  -42.6204 C   0  0  0  0  0  0  0  0  0  0  0  0
  -36.9723    4.0084  -43.4693 C   0  0  0  0  0  0  0  0  0  0  0  0
  -36.0194    3.9412  -44.5846 N   0  0  0  0  0  0  0  0  0  0  0  0
  -34.6397    3.8168  -44.0972 C   0  0  0  0  0  0  0  0  0  0  0  0
  -34.2763    5.0495  -43.2662 C   0  0  0  0  0  0  0  0  0  0  0  0
  -36.4111    2.6615  -45.6490 X   0  0  0  0  0  0  0  0  0  0  0  0
  1  2  1  0  0  0  0
  2  3  1  0  0  0  0
  2  4  1  0  0  0  0
  4  5  1  0  0  0  0
  5  6  1  0  0  0  0
  5 10  1  0  0  0  0
  6  7  1  0  0  0  0
  7  8  1  0  0  0  0
  8  9  1  0  0  0  0
  8 11  1  0  0  0  0
  9 10  1  0  0  0  0
M  END
> <Index>
15993

> <PropertyFieldDistance>
nan

$$$$
12213976
BBcorina  12272117083D 1   1.00000     0.00000 
CORINA 4.3.0 0026  30.10.2019
 11 12  0  0  0  0  0  0  0  0999 V2000
  -35.8316    4.0180  -40.2479 F   0  0  0  0  0  0  0  0  0  0  0  0
  -35.6141    4.4192  -41.5705 C   0  0  0  0  0  0  0  0  0  0  0  0
  -34.9607    5.6561  -41.5790 F   0  0  0  0  0  0  0  0  0  0  0  0
  -36.9590    4.5483  -42.2913 C   0  0  0  0  0  0  0  0  0  0  0  0
  -36.7006    4.8438  -43.7775 C   0  0  0  0  0  0  0  0  0  0  0  0
  -35.6534    5.9781  -43.8590 C   0  0  0  0  0  0  0  0  0  0  0  0
  -34.2890    5.2577  -43.8531 C   0  0  0  0  0  0  0  0  0  0  0  0
  -34.6359    3.7534  -43.7686 C   0  0  0  0  0  0  0  0  0  0  0  0
  -34.7442    3.3787  -42.2818 C   0  0  0  0  0  0  0  0  0  0  0  0
  -36.0027    3.6605  -44.3472 N   0  0  0  0  0  0  0  0  0  0  0  0
  -35.9523    3.7421  -46.0545 X   0  0  0  0  0  0  0  0  0  0  0  0
  1  2  1  0  0  0  0
  2  3  1  0  0  0  0
  2  4  1  0  0  0  0
  2  9  1  0  0  0  0
  4  5  1  0  0  0  0
  5  6  1  0  0  0  0
  5 10  1  0  0  0  0
  6  7  1  0  0  0  0
  7  8  1  0  0  0  0
  8  9  1  0  0  0  0
  8 10  1  0  0  0  0
 10 11  1  0  0  0  0
M  END
> <Index>
15999

> <PropertyFieldDistance>
nan

$$$$
13161098
BBcorina  12272117083D 1   1.00000     0.00000 
CORINA 4.3.0 0026  30.10.2019
  9  9  0  0  0  0  0  0  0  0999 V2000
  -32.5273    4.6231  -43.1343 C   0  0  0  0  0  0  0  0  0  0  0  0
  -33.9824    4.9716  -43.4536 C   0  0  0  0  0  0  0  0  0  0  0  0
  -34.7166    5.3229  -42.1420 C   0  0  0  0  0  0  0  0  0  0  0  0
  -35.8970    6.0148  -42.4525 O   0  0  0  0  0  0  0  0  0  0  0  0
  -37.1017    5.2333  -42.5886 C   0  0  0  0  0  0  0  0  0  0  0  0
  -36.8785    3.9217  -43.3609 C   0  0  0  0  0  0  0  0  0  0  0  0
  -36.0148    4.1035  -44.5031 N   0  0  0  0  0  0  0  0  0  0  0  0
  -34.6099    3.8335  -44.1314 C   0  0  0  0  0  0  0  0  0  0  0  0
  -36.5054    3.1114  -45.8066 X   0  0  0  0  0  0  0  0  0  0  0  0
  1  2  1  0  0  0  0
  2  3  1  0  0  0  0
  2  8  1  0  0  0  0
  3  4  1  0  0  0  0
  4  5  1  0  0  0  0
  5  6  1  0  0  0  0
  6  7  1  0  0  0  0
  7  8  1  0  0  0  0
  7  9  1  0  0  0  0
M  END
> <Index>
16001

> <PropertyFieldDistance>
nan

$$$$
10746556
BBcorina  12272117083D 1   1.00000     0.00000 
CORINA 4.3.0 0026  30.10.2019
 12 12  0  0  0  0  0  0  0  0999 V2000
  -38.4119    3.9752  -43.9377 C   0  0  0  0  0  0  0  0  0  0  0  0
  -36.9548    3.9286  -43.4734 C   0  0  0  0  0  0  0  0  0  0  0  0
  -36.6535    5.1569  -42.6116 C   0  0  0  0  0  0  0  0  0  0  0  0
  -35.2432    5.1291  -42.1995 N   0  0  0  0  0  0  0  0  0  0  0  0
  -34.3553    5.1257  -43.3704 C   0  0  0  0  0  0  0  0  0  0  0  0
  -34.6565    3.8973  -44.2322 C   0  0  0  0  0  0  0  0  0  0  0  0
  -33.7617    3.9125  -45.4732 C   0  0  0  0  0  0  0  0  0  0  0  0
  -36.0668    3.9252  -44.6444 N   0  0  0  0  0  0  0  0  0  0  0  0
  -36.3768    2.8004  -45.5368 C   0  0  0  0  0  0  0  0  0  0  0  0
  -36.0489    1.4833  -44.8304 C   0  0  0  0  0  0  0  0  0  0  0  0
  -36.9519    1.2901  -43.7399 O   0  0  0  0  0  0  0  0  0  0  0  0
  -34.8824    6.4385  -41.1605 X   0  0  0  0  0  0  0  0  0  0  0  0
  1  2  1  0  0  0  0
  2  3  1  0  0  0  0
  2  8  1  0  0  0  0
  3  4  1  0  0  0  0
  4  5  1  0  0  0  0
  4 12  1  0  0  0  0
  5  6  1  0  0  0  0
  6  7  1  0  0  0  0
  6  8  1  0  0  0  0
  8  9  1  0  0  0  0
  9 10  1  0  0  0  0
 10 11  1  0  0  0  0
M  END
> <Index>
16002

> <PropertyFieldDistance>
nan

$$$$
13616296
BBcorina  12272117083D 1   1.00000     0.00000 
CORINA 4.3.0 0026  30.10.2019
 11 12  0  0  0  0  0  0  0  0999 V2000
  -37.2775    8.2253  -42.3517 O   0  0  0  0  0  0  0  0  0  0  0  0
  -36.7002    7.7853  -43.5825 C   0  0  0  0  0  0  0  0  0  0  0  0
  -36.0555    6.4124  -43.3815 C   0  0  0  0  0  0  0  0  0  0  0  0
  -37.1548    5.3789  -43.0495 C   0  0  0  0  0  0  0  0  0  0  0  0
  -36.5039    3.9874  -42.9933 C   0  0  0  0  0  0  0  0  0  0  0  0
  -35.2215    4.0842  -42.1351 C   0  0  0  0  0  0  0  0  0  0  0  0
  -34.1062    4.4612  -43.1323 C   0  0  0  0  0  0  0  0  0  0  0  0
  -34.8160    4.5580  -44.5024 C   0  0  0  0  0  0  0  0  0  0  0  0
  -35.3303    5.9974  -44.6648 C   0  0  0  0  0  0  0  0  0  0  0  0
  -36.0064    3.6780  -44.3602 N   0  0  0  0  0  0  0  0  0  0  0  0
  -35.5700    2.0302  -44.4951 X   0  0  0  0  0  0  0  0  0  0  0  0
  1  2  1  0  0  0  0
  2  3  1  0  0  0  0
  3  4  1  0  0  0  0
  3  9  1  0  0  0  0
  4  5  1  0  0  0  0
  5  6  1  0  0  0  0
  5 10  1  0  0  0  0
  6  7  1  0  0  0  0
  7  8  1  0  0  0  0
  8  9  1  0  0  0  0
  8 10  1  0  0  0  0
 10 11  1  0  0  0  0
M  END
> <Index>
16003

> <PropertyFieldDistance>
nan

$$$$
9047838
BBcorina  12272117083D 1   1.00000     0.00000 
CORINA 4.3.0 0026  30.10.2019
 12 12  0  0  0  0  0  0  0  0999 V2000
  -37.3789    1.1589  -44.0597 C   0  0  0  0  0  0  0  0  0  0  0  0
  -36.2472    1.3622  -45.0690 C   0  0  0  0  0  0  0  0  0  0  0  0
  -36.4455    0.4160  -46.2550 C   0  0  0  0  0  0  0  0  0  0  0  0
  -36.2595    2.8099  -45.5641 C   0  0  0  0  0  0  0  0  0  0  0  0
  -35.9512    3.7095  -44.4498 N   0  0  0  0  0  0  0  0  0  0  0  0
  -37.0539    4.2227  -43.6420 C   0  0  0  0  0  0  0  0  0  0  0  0
  -36.5251    4.7488  -42.3065 C   0  0  0  0  0  0  0  0  0  0  0  0
  -35.4001    5.6607  -42.5695 N   0  0  0  0  0  0  0  0  0  0  0  0
  -34.2463    4.9080  -43.0798 C   0  0  0  0  0  0  0  0  0  0  0  0
  -34.6725    4.0247  -44.2181 C   0  0  0  0  0  0  0  0  0  0  0  0
  -33.8209    3.5783  -44.9574 O   0  0  0  0  0  0  0  0  0  0  0  0
  -34.9839    6.5418  -41.1643 X   0  0  0  0  0  0  0  0  0  0  0  0
  1  2  1  0  0  0  0
  2  3  1  0  0  0  0
  2  4  1  0  0  0  0
  4  5  1  0  0  0  0
  5  6  1  0  0  0  0
  5 10  1  0  0  0  0
  6  7  1  0  0  0  0
  7  8  1  0  0  0  0
  8  9  1  0  0  0  0
  8 12  1  0  0  0  0
  9 10  1  0  0  0  0
 10 11  2  0  0  0  0
M  END
> <Index>
16008

> <PropertyFieldDistance>
nan

$$$$
17629110
BBcorina  12272117083D 1   1.00000     0.00000 
CORINA 4.3.0 0026  30.10.2019
 11 12  0  0  0  0  0  0  0  0999 V2000
  -35.9473    3.4675  -44.1742 N   0  0  0  0  0  0  0  0  0  0  0  0
  -37.0291    4.3849  -43.7955 C   0  0  0  0  0  0  0  0  0  0  0  0
  -36.6588    5.1132  -42.5008 C   0  0  0  0  0  0  0  0  0  0  0  0
  -35.3556    5.8856  -42.7161 C   0  0  0  0  0  0  0  0  0  0  0  0
  -34.9383    6.5778  -41.4181 C   0  0  0  0  0  0  0  0  0  0  0  0
  -33.6363    7.3478  -41.6524 C   0  0  0  0  0  0  0  0  0  0  0  0
  -32.5381    6.3791  -42.0945 C   0  0  0  0  0  0  0  0  0  0  0  0
  -32.9609    5.6772  -43.3875 C   0  0  0  0  0  0  0  0  0  0  0  0
  -34.2586    4.9063  -43.1435 C   0  0  0  0  0  0  0  0  0  0  0  0
  -34.6935    4.1917  -44.4236 C   0  0  0  0  0  0  0  0  0  0  0  0
  -36.3901    2.5241  -45.5299 X   0  0  0  0  0  0  0  0  0  0  0  0
  1  2  1  0  0  0  0
  1 10  1  0  0  0  0
  1 11  1  0  0  0  0
  2  3  1  0  0  0  0
  3  4  1  0  0  0  0
  4  5  1  0  0  0  0
  4  9  1  0  0  0  0
  5  6  1  0  0  0  0
  6  7  1  0  0  0  0
  7  8  1  0  0  0  0
  8  9  1  0  0  0  0
  9 10  1  0  0  0  0
M  END
> <Index>
16018

> <PropertyFieldDistance>
nan

$$$$
12104304
BBcorina  12272117083D 1   1.00000     0.00000 
CORINA 4.3.0 0026  30.10.2019
 14 15  0  0  0  0  0  0  0  0999 V2000
  -36.1403    0.7679  -46.7145 N   0  0  0  0  0  0  0  0  0  0  0  0
  -35.5716    1.6312  -45.6709 C   0  0  0  0  0  0  0  0  0  0  0  0
  -36.6796    2.4929  -45.0620 C   0  0  0  0  0  0  0  0  0  0  0  0
  -36.1108    3.3563  -44.0183 N   0  0  0  0  0  0  0  0  0  0  0  0
  -37.0880    4.3615  -43.5758 C   0  0  0  0  0  0  0  0  0  0  0  0
  -36.4761    5.1987  -42.4494 C   0  0  0  0  0  0  0  0  0  0  0  0
  -35.2595    5.7926  -42.9104 O   0  0  0  0  0  0  0  0  0  0  0  0
  -34.2849    4.8420  -43.3486 C   0  0  0  0  0  0  0  0  0  0  0  0
  -34.8745    4.0012  -44.4840 C   0  0  0  0  0  0  0  0  0  0  0  0
  -35.1031   -0.0758  -47.3229 C   0  0  0  0  0  0  0  0  0  0  0  0
  -35.7322   -0.9588  -48.4025 C   0  0  0  0  0  0  0  0  0  0  0  0
  -34.7929   -1.8318  -49.2370 C   0  0  0  0  0  0  0  0  0  0  0  0
  -35.7005   -2.4727  -48.1839 C   0  0  0  0  0  0  0  0  0  0  0  0
  -37.4181   -0.1838  -46.0935 X   0  0  0  0  0  0  0  0  0  0  0  0
  1  2  1  0  0  0  0
  1 10  1  0  0  0  0
  1 14  1  0  0  0  0
  2  3  1  0  0  0  0
  3  4  1  0  0  0  0
  4  5  1  0  0  0  0
  4  9  1  0  0  0  0
  5  6  1  0  0  0  0
  6  7  1  0  0  0  0
  7  8  1  0  0  0  0
  8  9  1  0  0  0  0
 10 11  1  0  0  0  0
 11 12  1  0  0  0  0
 11 13  1  0  0  0  0
 12 13  1  0  0  0  0
M  END
> <Index>
16019

> <PropertyFieldDistance>
nan

$$$$
16792762
BBcorina  12272117083D 1   1.00000     0.00000 
CORINA 4.3.0 0026  30.10.2019
 10 10  0  0  0  0  0  0  0  0999 V2000
  -38.3235    3.5973  -43.5887 C   0  0  0  0  0  0  0  0  0  0  0  0
  -37.0298    4.3870  -43.7976 C   0  0  0  0  0  0  0  0  0  0  0  0
  -36.6586    5.1099  -42.5008 C   0  0  0  0  0  0  0  0  0  0  0  0
  -35.3533    5.8832  -42.7080 C   0  0  0  0  0  0  0  0  0  0  0  0
  -34.2557    4.9087  -43.1443 C   0  0  0  0  0  0  0  0  0  0  0  0
  -32.9628    5.6820  -43.4114 C   0  0  0  0  0  0  0  0  0  0  0  0
  -34.0169    3.8795  -42.0376 C   0  0  0  0  0  0  0  0  0  0  0  0
  -34.6956    4.1916  -44.4226 C   0  0  0  0  0  0  0  0  0  0  0  0
  -35.9477    3.4664  -44.1723 N   0  0  0  0  0  0  0  0  0  0  0  0
  -36.3896    2.5210  -45.5271 X   0  0  0  0  0  0  0  0  0  0  0  0
  1  2  1  0  0  0  0
  2  3  1  0  0  0  0
  2  9  1  0  0  0  0
  3  4  1  0  0  0  0
  4  5  1  0  0  0  0
  5  6  1  0  0  0  0
  5  7  1  0  0  0  0
  5  8  1  0  0  0  0
  8  9  1  0  0  0  0
  9 10  1  0  0  0  0
M  END
> <Index>
16020

> <PropertyFieldDistance>
nan

$$$$
17841146
BBcorina  12272117083D 1   1.00000     0.00000 
CORINA 4.3.0 0026  30.10.2019
 10 11  0  0  0  0  0  0  0  0999 V2000
  -36.6450    7.6677  -43.5654 F   0  0  0  0  0  0  0  0  0  0  0  0
  -36.0555    6.4124  -43.3815 C   0  0  0  0  0  0  0  0  0  0  0  0
  -37.1548    5.3789  -43.0495 C   0  0  0  0  0  0  0  0  0  0  0  0
  -36.5039    3.9874  -42.9933 C   0  0  0  0  0  0  0  0  0  0  0  0
  -35.2215    4.0842  -42.1351 C   0  0  0  0  0  0  0  0  0  0  0  0
  -34.1062    4.4612  -43.1323 C   0  0  0  0  0  0  0  0  0  0  0  0
  -34.8160    4.5580  -44.5024 C   0  0  0  0  0  0  0  0  0  0  0  0
  -35.3303    5.9974  -44.6648 C   0  0  0  0  0  0  0  0  0  0  0  0
  -36.0064    3.6780  -44.3602 N   0  0  0  0  0  0  0  0  0  0  0  0
  -35.5700    2.0302  -44.4951 X   0  0  0  0  0  0  0  0  0  0  0  0
  1  2  1  0  0  0  0
  2  3  1  0  0  0  0
  2  8  1  0  0  0  0
  3  4  1  0  0  0  0
  4  5  1  0  0  0  0
  4  9  1  0  0  0  0
  5  6  1  0  0  0  0
  6  7  1  0  0  0  0
  7  8  1  0  0  0  0
  7  9  1  0  0  0  0
  9 10  1  0  0  0  0
M  END
> <Index>
16021

> <PropertyFieldDistance>
nan

$$$$
9018124
BBcorina  12272117083D 1   1.00000     0.00000 
CORINA 4.3.0 0026  30.10.2019
 12 13  0  0  0  0  0  0  0  0999 V2000
  -36.0194    3.9411  -44.5846 N   0  0  0  0  0  0  0  0  0  0  0  0
  -36.9724    4.0084  -43.4692 C   0  0  0  0  0  0  0  0  0  0  0  0
  -36.6796    5.2477  -42.6204 C   0  0  0  0  0  0  0  0  0  0  0  0
  -35.2463    5.1684  -42.0875 C   0  0  0  0  0  0  0  0  0  0  0  0
  -34.2763    5.0495  -43.2662 C   0  0  0  0  0  0  0  0  0  0  0  0
  -34.6397    3.8168  -44.0972 C   0  0  0  0  0  0  0  0  0  0  0  0
  -34.9320    6.4144  -41.3003 C   0  0  0  0  0  0  0  0  0  0  0  0
  -34.5807    6.3807  -39.9618 C   0  0  0  0  0  0  0  0  0  0  0  0
  -34.3402    7.5727  -39.4137 C   0  0  0  0  0  0  0  0  0  0  0  0
  -34.5587    8.8323  -40.6217 S   0  0  0  0  0  0  0  0  0  0  0  0
  -34.9768    7.6339  -41.8391 C   0  0  0  0  0  0  0  0  0  0  0  0
  -36.4111    2.6614  -45.6489 X   0  0  0  0  0  0  0  0  0  0  0  0
  1  2  1  0  0  0  0
  1  6  1  0  0  0  0
  1 12  1  0  0  0  0
  2  3  1  0  0  0  0
  3  4  1  0  0  0  0
  4  5  1  0  0  0  0
  4  7  1  0  0  0  0
  5  6  1  0  0  0  0
  7  8  1  0  0  0  0
  7 11  2  0  0  0  0
  8  9  2  0  0  0  0
  9 10  1  0  0  0  0
 10 11  1  0  0  0  0
M  END
> <Index>
16022

> <PropertyFieldDistance>
nan

$$$$
9209460
BBcorina  12272117083D 1   1.00000     0.00000 
CORINA 4.3.0 0026  30.10.2019
 12 12  0  0  0  0  0  0  0  0999 V2000
  -34.9364   -2.4312  -48.4337 C   0  0  0  0  0  0  0  0  0  0  0  0
  -35.7893   -1.8283  -47.3158 C   0  0  0  0  0  0  0  0  0  0  0  0
  -35.3989   -0.4281  -47.1030 N   0  0  0  0  0  0  0  0  0  0  0  0
  -36.1988    0.1848  -46.0341 C   0  0  0  0  0  0  0  0  0  0  0  0
  -35.7643    1.6391  -45.8420 C   0  0  0  0  0  0  0  0  0  0  0  0
  -36.5974    2.2775  -44.7288 C   0  0  0  0  0  0  0  0  0  0  0  0
  -36.1803    3.6739  -44.5443 N   0  0  0  0  0  0  0  0  0  0  0  0
  -37.1112    4.3902  -43.6533 C   0  0  0  0  0  0  0  0  0  0  0  0
  -36.2804    4.9534  -42.4812 C   0  0  0  0  0  0  0  0  0  0  0  0
  -34.8447    5.0109  -43.0666 C   0  0  0  0  0  0  0  0  0  0  0  0
  -34.8222    3.7491  -43.9647 C   0  0  0  0  0  0  0  0  0  0  0  0
  -33.7271   -0.3027  -46.7660 X   0  0  0  0  0  0  0  0  0  0  0  0
  1  2  1  0  0  0  0
  2  3  1  0  0  0  0
  3  4  1  0  0  0  0
  3 12  1  0  0  0  0
  4  5  1  0  0  0  0
  5  6  1  0  0  0  0
  6  7  1  0  0  0  0
  7  8  1  0  0  0  0
  7 11  1  0  0  0  0
  8  9  1  0  0  0  0
  9 10  1  0  0  0  0
 10 11  1  0  0  0  0
M  END
> <Index>
16023

> <PropertyFieldDistance>
nan

$$$$
11688218
BBcorina  12272117083D 1   1.00000     0.00000 
CORINA 4.3.0 0026  30.10.2019
  7  7  0  0  0  0  0  0  0  0999 V2000
  -34.9630    1.9291  -42.2648 N   0  0  0  0  0  0  0  0  0  0  0  0
  -35.7469    2.4512  -43.3921 C   0  0  0  0  0  0  0  0  0  0  0  0
  -36.3999    3.8064  -43.0339 C   0  0  0  0  0  0  0  0  0  0  0  0
  -36.3208    4.6189  -44.3054 C   0  0  0  0  0  0  0  0  0  0  0  0
  -35.4632    4.1007  -45.1417 C   0  0  0  0  0  0  0  0  0  0  0  0
  -34.8272    2.8561  -44.5675 C   0  0  0  0  0  0  0  0  0  0  0  0
  -34.9398    0.2193  -42.2742 X   0  0  0  0  0  0  0  0  0  0  0  0
  1  2  1  0  0  0  0
  1  7  1  0  0  0  0
  2  3  1  0  0  0  0
  2  6  1  0  0  0  0
  3  4  1  0  0  0  0
  4  5  2  0  0  0  0
  5  6  1  0  0  0  0
M  END
> <Index>
16031

> <PropertyFieldDistance>
nan

$$$$
9105348
BBcorina  12272117083D 1   1.00000     0.00000 
CORINA 4.3.0 0026  30.10.2019
 15 15  0  0  0  0  0  0  0  0999 V2000
  -37.5168    5.3476  -41.3611 C   0  0  0  0  0  0  0  0  0  0  0  0
  -36.6668    5.3200  -42.6330 C   0  0  0  0  0  0  0  0  0  0  0  0
  -36.9515    4.0329  -43.4144 C   0  0  0  0  0  0  0  0  0  0  0  0
  -36.0241    3.9380  -44.5497 N   0  0  0  0  0  0  0  0  0  0  0  0
  -34.6313    3.8384  -44.0933 C   0  0  0  0  0  0  0  0  0  0  0  0
  -34.2516    5.1174  -43.3396 C   0  0  0  0  0  0  0  0  0  0  0  0
  -35.2405    5.3431  -42.2745 N   0  0  0  0  0  0  0  0  0  0  0  0
  -34.8503    5.5600  -41.0029 C   0  0  0  0  0  0  0  0  0  0  0  0
  -35.6727    5.8457  -40.1553 O   0  0  0  0  0  0  0  0  0  0  0  0
  -33.5491    5.4601  -40.6717 O   0  0  0  0  0  0  0  0  0  0  0  0
  -33.2013    5.7070  -39.2837 C   0  0  0  0  0  0  0  0  0  0  0  0
  -33.9316    4.7037  -38.3888 C   0  0  0  0  0  0  0  0  0  0  0  0
  -31.6906    5.5486  -39.1005 C   0  0  0  0  0  0  0  0  0  0  0  0
  -33.6153    7.1288  -38.8993 C   0  0  0  0  0  0  0  0  0  0  0  0
  -36.4314    2.6241  -45.5655 X   0  0  0  0  0  0  0  0  0  0  0  0
  1  2  1  0  0  0  0
  2  3  1  0  0  0  0
  2  7  1  0  0  0  0
  3  4  1  0  0  0  0
  4  5  1  0  0  0  0
  4 15  1  0  0  0  0
  5  6  1  0  0  0  0
  6  7  1  0  0  0  0
  7  8  1  0  0  0  0
  8  9  2  0  0  0  0
  8 10  1  0  0  0  0
 10 11  1  0  0  0  0
 11 12  1  0  0  0  0
 11 13  1  0  0  0  0
 11 14  1  0  0  0  0
M  END
> <Index>
16038

> <PropertyFieldDistance>
nan

$$$$
9142342
BBcorina  12272117083D 1   1.00000     0.00000 
CORINA 4.3.0 0026  30.10.2019
 15 15  0  0  0  0  0  0  0  0999 V2000
  -37.5168    5.3476  -41.3611 C   0  0  0  0  0  0  0  0  0  0  0  0
  -36.6668    5.3200  -42.6330 C   0  0  0  0  0  0  0  0  0  0  0  0
  -36.9515    4.0329  -43.4144 C   0  0  0  0  0  0  0  0  0  0  0  0
  -36.0241    3.9380  -44.5497 N   0  0  0  0  0  0  0  0  0  0  0  0
  -34.6313    3.8384  -44.0933 C   0  0  0  0  0  0  0  0  0  0  0  0
  -34.2516    5.1174  -43.3396 C   0  0  0  0  0  0  0  0  0  0  0  0
  -35.2405    5.3431  -42.2745 N   0  0  0  0  0  0  0  0  0  0  0  0
  -34.8503    5.5600  -41.0029 C   0  0  0  0  0  0  0  0  0  0  0  0
  -35.6727    5.8457  -40.1553 O   0  0  0  0  0  0  0  0  0  0  0  0
  -33.5491    5.4601  -40.6717 O   0  0  0  0  0  0  0  0  0  0  0  0
  -33.2013    5.7070  -39.2837 C   0  0  0  0  0  0  0  0  0  0  0  0
  -33.9316    4.7037  -38.3888 C   0  0  0  0  0  0  0  0  0  0  0  0
  -31.6906    5.5486  -39.1005 C   0  0  0  0  0  0  0  0  0  0  0  0
  -33.6153    7.1288  -38.8993 C   0  0  0  0  0  0  0  0  0  0  0  0
  -36.4314    2.6241  -45.5655 X   0  0  0  0  0  0  0  0  0  0  0  0
  1  2  1  0  0  0  0
  2  3  1  0  0  0  0
  2  7  1  0  0  0  0
  3  4  1  0  0  0  0
  4  5  1  0  0  0  0
  4 15  1  0  0  0  0
  5  6  1  0  0  0  0
  6  7  1  0  0  0  0
  7  8  1  0  0  0  0
  8  9  2  0  0  0  0
  8 10  1  0  0  0  0
 10 11  1  0  0  0  0
 11 12  1  0  0  0  0
 11 13  1  0  0  0  0
 11 14  1  0  0  0  0
M  END
> <Index>
16039

> <PropertyFieldDistance>
nan

$$$$
9746602
BBcorina  12272117083D 1   1.00000     0.00000 
CORINA 4.3.0 0026  30.10.2019
 14 15  0  0  0  0  0  0  0  0999 V2000
  -36.3365    2.2637  -44.9019 C   0  0  0  0  0  0  0  0  0  0  0  0
  -36.0121    3.4843  -44.1594 N   0  0  0  0  0  0  0  0  0  0  0  0
  -36.9588    4.1176  -43.4331 C   0  0  0  0  0  0  0  0  0  0  0  0
  -38.0809    3.6616  -43.3656 O   0  0  0  0  0  0  0  0  0  0  0  0
  -36.6152    5.3929  -42.7064 C   0  0  0  0  0  0  0  0  0  0  0  0
  -35.2431    5.3628  -42.3050 O   0  0  0  0  0  0  0  0  0  0  0  0
  -34.3404    4.9652  -43.2412 C   0  0  0  0  0  0  0  0  0  0  0  0
  -33.0633    5.4956  -43.2581 C   0  0  0  0  0  0  0  0  0  0  0  0
  -32.1546    5.0785  -44.2228 C   0  0  0  0  0  0  0  0  0  0  0  0
  -30.8621    5.6130  -44.2423 N   0  0  0  0  0  0  0  0  0  0  0  0
  -32.5274    4.1315  -45.1677 C   0  0  0  0  0  0  0  0  0  0  0  0
  -33.8056    3.6044  -45.1548 C   0  0  0  0  0  0  0  0  0  0  0  0
  -34.7116    4.0141  -44.1912 C   0  0  0  0  0  0  0  0  0  0  0  0
  -29.7425    5.1002  -45.4288 X   0  0  0  0  0  0  0  0  0  0  0  0
  1  2  1  0  0  0  0
  2  3  1  0  0  0  0
  2 13  1  0  0  0  0
  3  4  2  0  0  0  0
  3  5  1  0  0  0  0
  5  6  1  0  0  0  0
  6  7  1  0  0  0  0
  7  8  2  0  0  0  0
  7 13  1  0  0  0  0
  8  9  1  0  0  0  0
  9 10  1  0  0  0  0
  9 11  2  0  0  0  0
 10 14  1  0  0  0  0
 11 12  1  0  0  0  0
 12 13  2  0  0  0  0
M  END
> <Index>
16042

> <PropertyFieldDistance>
nan

$$$$
10546588
BBcorina  12272117083D 1   1.00000     0.00000 
CORINA 4.3.0 0026  30.10.2019
 12 12  0  0  0  0  0  0  0  0999 V2000
  -35.0002   -2.5209  -48.4083 N   0  0  0  0  0  0  0  0  0  0  0  0
  -35.8002   -1.9079  -47.3394 C   0  0  0  0  0  0  0  0  0  0  0  0
  -35.3656   -0.4536  -47.1473 C   0  0  0  0  0  0  0  0  0  0  0  0
  -36.1988    0.1848  -46.0341 C   0  0  0  0  0  0  0  0  0  0  0  0
  -35.7643    1.6391  -45.8420 C   0  0  0  0  0  0  0  0  0  0  0  0
  -36.5974    2.2775  -44.7288 C   0  0  0  0  0  0  0  0  0  0  0  0
  -36.1803    3.6739  -44.5443 N   0  0  0  0  0  0  0  0  0  0  0  0
  -37.1112    4.3902  -43.6533 C   0  0  0  0  0  0  0  0  0  0  0  0
  -36.2804    4.9534  -42.4812 C   0  0  0  0  0  0  0  0  0  0  0  0
  -34.8447    5.0109  -43.0666 C   0  0  0  0  0  0  0  0  0  0  0  0
  -34.8222    3.7491  -43.9647 C   0  0  0  0  0  0  0  0  0  0  0  0
  -35.4547   -4.1507  -48.6561 X   0  0  0  0  0  0  0  0  0  0  0  0
  1  2  1  0  0  0  0
  1 12  1  0  0  0  0
  2  3  1  0  0  0  0
  3  4  1  0  0  0  0
  4  5  1  0  0  0  0
  5  6  1  0  0  0  0
  6  7  1  0  0  0  0
  7  8  1  0  0  0  0
  7 11  1  0  0  0  0
  8  9  1  0  0  0  0
  9 10  1  0  0  0  0
 10 11  1  0  0  0  0
M  END
> <Index>
16046

> <PropertyFieldDistance>
nan

$$$$
9285592
BBcorina  12272117083D 1   1.00000     0.00000 
CORINA 4.3.0 0026  30.10.2019
 12 12  0  0  0  0  0  0  0  0999 V2000
  -36.3530    0.2404  -46.1596 C   0  0  0  0  0  0  0  0  0  0  0  0
  -35.8286    1.6539  -45.8992 C   0  0  0  0  0  0  0  0  0  0  0  0
  -34.3254    1.5967  -45.6200 C   0  0  0  0  0  0  0  0  0  0  0  0
  -36.0861    2.5278  -47.1285 C   0  0  0  0  0  0  0  0  0  0  0  0
  -35.3936    1.9549  -48.2904 N   0  0  0  0  0  0  0  0  0  0  0  0
  -36.5498    2.2506  -44.6890 C   0  0  0  0  0  0  0  0  0  0  0  0
  -36.1573    3.6572  -44.5296 N   0  0  0  0  0  0  0  0  0  0  0  0
  -37.1102    4.3769  -43.6648 C   0  0  0  0  0  0  0  0  0  0  0  0
  -36.3023    4.9781  -42.4955 C   0  0  0  0  0  0  0  0  0  0  0  0
  -34.8610    5.0466  -43.0654 C   0  0  0  0  0  0  0  0  0  0  0  0
  -34.8076    3.7666  -43.9361 C   0  0  0  0  0  0  0  0  0  0  0  0
  -35.6558    2.9032  -49.6890 X   0  0  0  0  0  0  0  0  0  0  0  0
  1  2  1  0  0  0  0
  2  3  1  0  0  0  0
  2  4  1  0  0  0  0
  2  6  1  0  0  0  0
  4  5  1  0  0  0  0
  5 12  1  0  0  0  0
  6  7  1  0  0  0  0
  7  8  1  0  0  0  0
  7 11  1  0  0  0  0
  8  9  1  0  0  0  0
  9 10  1  0  0  0  0
 10 11  1  0  0  0  0
M  END
> <Index>
16075

> <PropertyFieldDistance>
nan

$$$$
6475454
BBcorina  12272117083D 1   1.00000     0.00000 
CORINA 4.3.0 0026  30.10.2019
 14 15  0  0  0  0  0  0  0  0999 V2000
  -34.9734    6.9062  -41.8779 N   0  0  0  0  0  0  0  0  0  0  0  0
  -35.3835    6.0134  -42.9700 C   0  0  0  0  0  0  0  0  0  0  0  0
  -36.6552    5.2624  -42.5668 C   0  0  0  0  0  0  0  0  0  0  0  0
  -37.0433    4.2897  -43.6828 C   0  0  0  0  0  0  0  0  0  0  0  0
  -35.9454    3.3417  -43.9110 N   0  0  0  0  0  0  0  0  0  0  0  0
  -34.7262    4.0356  -44.3451 C   0  0  0  0  0  0  0  0  0  0  0  0
  -34.2692    5.0008  -43.2488 C   0  0  0  0  0  0  0  0  0  0  0  0
  -36.3354    2.3075  -44.8786 C   0  0  0  0  0  0  0  0  0  0  0  0
  -35.1309    1.4150  -45.1844 C   0  0  0  0  0  0  0  0  0  0  0  0
  -35.5370    0.3379  -46.1923 C   0  0  0  0  0  0  0  0  0  0  0  0
  -36.6651   -0.5118  -45.6038 C   0  0  0  0  0  0  0  0  0  0  0  0
  -37.8696    0.3808  -45.2981 C   0  0  0  0  0  0  0  0  0  0  0  0
  -37.4635    1.4578  -44.2902 C   0  0  0  0  0  0  0  0  0  0  0  0
  -35.6841    8.4519  -42.0506 X   0  0  0  0  0  0  0  0  0  0  0  0
  1  2  1  0  0  0  0
  1 14  1  0  0  0  0
  2  3  1  0  0  0  0
  2  7  1  0  0  0  0
  3  4  1  0  0  0  0
  4  5  1  0  0  0  0
  5  6  1  0  0  0  0
  5  8  1  0  0  0  0
  6  7  1  0  0  0  0
  8  9  1  0  0  0  0
  8 13  1  0  0  0  0
  9 10  1  0  0  0  0
 10 11  1  0  0  0  0
 11 12  1  0  0  0  0
 12 13  1  0  0  0  0
M  END
> <Index>
16093

> <PropertyFieldDistance>
nan

$$$$
7640902
BBcorina  12272117083D 1   1.00000     0.00000 
CORINA 4.3.0 0026  30.10.2019
 13 13  0  0  0  0  0  0  0  0999 V2000
  -36.3239    0.5430  -46.5820 C   0  0  0  0  0  0  0  0  0  0  0  0
  -36.0241    1.9822  -46.1579 C   0  0  0  0  0  0  0  0  0  0  0  0
  -36.8593    2.9471  -47.0018 C   0  0  0  0  0  0  0  0  0  0  0  0
  -36.3757    2.1621  -44.6797 C   0  0  0  0  0  0  0  0  0  0  0  0
  -36.0568    3.5345  -44.2641 N   0  0  0  0  0  0  0  0  0  0  0  0
  -36.9616    3.9854  -43.1990 C   0  0  0  0  0  0  0  0  0  0  0  0
  -36.6966    5.4614  -42.8936 C   0  0  0  0  0  0  0  0  0  0  0  0
  -35.2390    5.6337  -42.4576 C   0  0  0  0  0  0  0  0  0  0  0  0
  -34.3184    5.1120  -43.5643 C   0  0  0  0  0  0  0  0  0  0  0  0
  -34.6523    3.6462  -43.8503 C   0  0  0  0  0  0  0  0  0  0  0  0
  -33.7482    3.1266  -44.9699 C   0  0  0  0  0  0  0  0  0  0  0  0
  -33.9877    3.9039  -46.1932 N   0  0  0  0  0  0  0  0  0  0  0  0
  -32.9131    3.4344  -47.4378 X   0  0  0  0  0  0  0  0  0  0  0  0
  1  2  1  0  0  0  0
  2  3  1  0  0  0  0
  2  4  1  0  0  0  0
  4  5  1  0  0  0  0
  5  6  1  0  0  0  0
  5 10  1  0  0  0  0
  6  7  1  0  0  0  0
  7  8  1  0  0  0  0
  8  9  1  0  0  0  0
  9 10  1  0  0  0  0
 10 11  1  0  0  0  0
 11 12  1  0  0  0  0
 12 13  1  0  0  0  0
M  END
> <Index>
16096

> <PropertyFieldDistance>
nan

$$$$
15359668
BBcorina  12272117083D 1   1.00000     0.00000 
CORINA 4.3.0 0026  30.10.2019
 14 15  0  0  0  0  0  0  0  0999 V2000
  -37.4218   -0.4138  -47.6416 N   0  0  0  0  0  0  0  0  0  0  0  0
  -37.0453    0.5420  -46.6892 C   0  0  0  0  0  0  0  0  0  0  0  0
  -35.7826    0.5066  -46.1049 C   0  0  0  0  0  0  0  0  0  0  0  0
  -35.4622    1.4255  -45.2088 N   0  0  0  0  0  0  0  0  0  0  0  0
  -36.3254    2.3697  -44.8669 C   0  0  0  0  0  0  0  0  0  0  0  0
  -37.5350    2.4344  -45.4019 N   0  0  0  0  0  0  0  0  0  0  0  0
  -37.9251    1.5494  -46.3044 C   0  0  0  0  0  0  0  0  0  0  0  0
  -35.9529    3.3155  -43.9232 N   0  0  0  0  0  0  0  0  0  0  0  0
  -37.0411    4.2735  -43.6795 C   0  0  0  0  0  0  0  0  0  0  0  0
  -36.6105    5.2608  -42.5915 C   0  0  0  0  0  0  0  0  0  0  0  0
  -35.3999    5.9073  -42.9934 O   0  0  0  0  0  0  0  0  0  0  0  0
  -34.3187    5.0040  -43.2387 C   0  0  0  0  0  0  0  0  0  0  0  0
  -34.7260    4.0142  -44.3333 C   0  0  0  0  0  0  0  0  0  0  0  0
  -36.3246   -1.6429  -48.0995 X   0  0  0  0  0  0  0  0  0  0  0  0
  1  2  1  0  0  0  0
  1 14  1  0  0  0  0
  2  3  2  0  0  0  0
  2  7  1  0  0  0  0
  3  4  1  0  0  0  0
  4  5  2  0  0  0  0
  5  6  1  0  0  0  0
  5  8  1  0  0  0  0
  6  7  2  0  0  0  0
  8  9  1  0  0  0  0
  8 13  1  0  0  0  0
  9 10  1  0  0  0  0
 10 11  1  0  0  0  0
 11 12  1  0  0  0  0
 12 13  1  0  0  0  0
M  END
> <Index>
16104

> <PropertyFieldDistance>
nan

$$$$
18242858
BBcorina  12272117083D 1   1.00000     0.00000 
CORINA 4.3.0 0026  30.10.2019
 12 12  0  0  0  0  0  0  0  0999 V2000
  -34.6979    1.6867  -46.2270 O   0  0  0  0  0  0  0  0  0  0  0  0
  -36.1059    1.6538  -45.9847 C   0  0  0  0  0  0  0  0  0  0  0  0
  -36.3933    2.1751  -44.5752 C   0  0  0  0  0  0  0  0  0  0  0  0
  -36.0173    3.5927  -44.4913 N   0  0  0  0  0  0  0  0  0  0  0  0
  -36.6116    0.2152  -46.1095 C   0  0  0  0  0  0  0  0  0  0  0  0
  -35.9894   -0.4389  -47.3447 C   0  0  0  0  0  0  0  0  0  0  0  0
  -37.0801   -0.7098  -48.3828 C   0  0  0  0  0  0  0  0  0  0  0  0
  -37.9965    0.5105  -48.4902 C   0  0  0  0  0  0  0  0  0  0  0  0
  -37.2893    1.6109  -49.2840 C   0  0  0  0  0  0  0  0  0  0  0  0
  -36.2347    2.2795  -48.4001 C   0  0  0  0  0  0  0  0  0  0  0  0
  -36.8211    2.5356  -47.0105 C   0  0  0  0  0  0  0  0  0  0  0  0
  -36.3229    4.2163  -42.9288 X   0  0  0  0  0  0  0  0  0  0  0  0
  1  2  1  0  0  0  0
  2  3  1  0  0  0  0
  2  5  1  0  0  0  0
  2 11  1  0  0  0  0
  3  4  1  0  0  0  0
  4 12  1  0  0  0  0
  5  6  1  0  0  0  0
  6  7  1  0  0  0  0
  7  8  1  0  0  0  0
  8  9  1  0  0  0  0
  9 10  1  0  0  0  0
 10 11  1  0  0  0  0
M  END
> <Index>
16121

> <PropertyFieldDistance>
nan

$$$$
11968266
BBcorina  12272117083D 1   1.00000     0.00000 
CORINA 4.3.0 0026  30.10.2019
 14 15  0  0  0  0  0  0  0  0999 V2000
  -34.9675    6.8861  -41.8505 N   0  0  0  0  0  0  0  0  0  0  0  0
  -35.2385    5.5066  -42.2767 C   0  0  0  0  0  0  0  0  0  0  0  0
  -36.6923    5.3914  -42.7433 C   0  0  0  0  0  0  0  0  0  0  0  0
  -36.9513    3.9683  -43.2428 C   0  0  0  0  0  0  0  0  0  0  0  0
  -36.0373    3.6630  -44.3508 N   0  0  0  0  0  0  0  0  0  0  0  0
  -34.6363    3.7211  -43.9146 C   0  0  0  0  0  0  0  0  0  0  0  0
  -34.3080    5.1369  -43.4352 C   0  0  0  0  0  0  0  0  0  0  0  0
  -36.3495    2.3570  -44.9464 C   0  0  0  0  0  0  0  0  0  0  0  0
  -37.7803    2.3721  -45.4931 C   0  0  0  0  0  0  0  0  0  0  0  0
  -38.0695    1.0355  -46.1813 C   0  0  0  0  0  0  0  0  0  0  0  0
  -37.1118    0.8185  -47.2194 O   0  0  0  0  0  0  0  0  0  0  0  0
  -35.7602    0.7476  -46.7608 C   0  0  0  0  0  0  0  0  0  0  0  0
  -35.3782    2.0727  -46.0962 C   0  0  0  0  0  0  0  0  0  0  0  0
  -35.3230    7.9953  -43.1026 X   0  0  0  0  0  0  0  0  0  0  0  0
  1  2  1  0  0  0  0
  1 14  1  0  0  0  0
  2  3  1  0  0  0  0
  2  7  1  0  0  0  0
  3  4  1  0  0  0  0
  4  5  1  0  0  0  0
  5  6  1  0  0  0  0
  5  8  1  0  0  0  0
  6  7  1  0  0  0  0
  8  9  1  0  0  0  0
  8 13  1  0  0  0  0
  9 10  1  0  0  0  0
 10 11  1  0  0  0  0
 11 12  1  0  0  0  0
 12 13  1  0  0  0  0
M  END
> <Index>
16128

> <PropertyFieldDistance>
nan

$$$$
7941154
BBcorina  12272117083D 1   1.00000     0.00000 
CORINA 4.3.0 0026  30.10.2019
 14 15  0  0  0  0  0  0  0  0999 V2000
  -35.4308    6.4804  -41.3305 N   0  0  0  0  0  0  0  0  0  0  0  0
  -35.5988    5.8292  -42.6365 C   0  0  0  0  0  0  0  0  0  0  0  0
  -36.8013    4.8827  -42.5854 C   0  0  0  0  0  0  0  0  0  0  0  0
  -36.9356    4.1632  -43.9294 C   0  0  0  0  0  0  0  0  0  0  0  0
  -35.7070    3.4081  -44.2065 N   0  0  0  0  0  0  0  0  0  0  0  0
  -35.8519    2.5944  -45.4209 C   0  0  0  0  0  0  0  0  0  0  0  0
  -36.9035    1.5085  -45.1847 C   0  0  0  0  0  0  0  0  0  0  0  0
  -37.1180    0.6936  -46.4722 C   0  0  0  0  0  0  0  0  0  0  0  0
  -36.7445   -0.7653  -46.1378 C   0  0  0  0  0  0  0  0  0  0  0  0
  -36.9217   -0.8602  -44.6020 C   0  0  0  0  0  0  0  0  0  0  0  0
  -36.4076    0.5170  -44.1119 C   0  0  0  0  0  0  0  0  0  0  0  0
  -34.5459    4.3017  -44.3075 C   0  0  0  0  0  0  0  0  0  0  0  0
  -34.3404    5.0252  -42.9746 C   0  0  0  0  0  0  0  0  0  0  0  0
  -35.0573    5.3340  -40.1178 X   0  0  0  0  0  0  0  0  0  0  0  0
  1  2  1  0  0  0  0
  1 14  1  0  0  0  0
  2  3  1  0  0  0  0
  2 13  1  0  0  0  0
  3  4  1  0  0  0  0
  4  5  1  0  0  0  0
  5  6  1  0  0  0  0
  5 12  1  0  0  0  0
  6  7  1  0  0  0  0
  7  8  1  0  0  0  0
  7 11  1  0  0  0  0
  8  9  1  0  0  0  0
  9 10  1  0  0  0  0
 10 11  1  0  0  0  0
 12 13  1  0  0  0  0
M  END
> <Index>
16129

> <PropertyFieldDistance>
nan

$$$$
116752
BBcorina  12272117083D 1   1.00000     0.00000 
CORINA 4.3.0 0026  30.10.2019
 11 11  0  0  0  0  0  0  0  0999 V2000
  -36.2007    0.5316  -46.5510 C   0  0  0  0  0  0  0  0  0  0  0  0
  -35.7984    1.9262  -46.0673 C   0  0  0  0  0  0  0  0  0  0  0  0
  -36.5187    2.2380  -44.7539 C   0  0  0  0  0  0  0  0  0  0  0  0
  -36.1324    3.5771  -44.2896 N   0  0  0  0  0  0  0  0  0  0  0  0
  -36.9750    4.0081  -43.1667 C   0  0  0  0  0  0  0  0  0  0  0  0
  -36.6429    5.4577  -42.8054 C   0  0  0  0  0  0  0  0  0  0  0  0
  -35.1630    5.5577  -42.4253 C   0  0  0  0  0  0  0  0  0  0  0  0
  -34.3092    5.0573  -43.5938 C   0  0  0  0  0  0  0  0  0  0  0  0
  -34.7089    3.6194  -43.9323 C   0  0  0  0  0  0  0  0  0  0  0  0
  -34.8245    6.9571  -42.1338 N   0  0  0  0  0  0  0  0  0  0  0  0
  -35.2108    7.9694  -43.4568 X   0  0  0  0  0  0  0  0  0  0  0  0
  1  2  1  0  0  0  0
  2  3  1  0  0  0  0
  3  4  1  0  0  0  0
  4  5  1  0  0  0  0
  4  9  1  0  0  0  0
  5  6  1  0  0  0  0
  6  7  1  0  0  0  0
  7  8  1  0  0  0  0
  7 10  1  0  0  0  0
  8  9  1  0  0  0  0
 10 11  1  0  0  0  0
M  END
> <Index>
16130

> <PropertyFieldDistance>
nan

$$$$
14263206
BBcorina  12272117083D 1   1.00000     0.00000 
CORINA 4.3.0 0026  30.10.2019
 12 12  0  0  0  0  0  0  0  0999 V2000
  -36.4698    2.7162  -47.1639 C   0  0  0  0  0  0  0  0  0  0  0  0
  -36.8417    1.9331  -45.9032 C   0  0  0  0  0  0  0  0  0  0  0  0
  -35.7834    2.1712  -44.8242 C   0  0  0  0  0  0  0  0  0  0  0  0
  -36.0873    1.2926  -43.6091 C   0  0  0  0  0  0  0  0  0  0  0  0
  -35.8018    3.5844  -44.4236 N   0  0  0  0  0  0  0  0  0  0  0  0
  -37.0259    3.9008  -43.6440 C   0  0  0  0  0  0  0  0  0  0  0  0
  -36.6393    5.1963  -42.8872 C   0  0  0  0  0  0  0  0  0  0  0  0
  -35.1547    4.9570  -42.5283 C   0  0  0  0  0  0  0  0  0  0  0  0
  -34.3528    6.2503  -42.6866 C   0  0  0  0  0  0  0  0  0  0  0  0
  -34.7526    7.2051  -41.6442 N   0  0  0  0  0  0  0  0  0  0  0  0
  -34.6639    3.8975  -43.5322 C   0  0  0  0  0  0  0  0  0  0  0  0
  -33.8782    8.6679  -41.7851 X   0  0  0  0  0  0  0  0  0  0  0  0
  1  2  1  0  0  0  0
  2  3  1  0  0  0  0
  3  4  1  0  0  0  0
  3  5  1  0  0  0  0
  5  6  1  0  0  0  0
  5 11  1  0  0  0  0
  6  7  1  0  0  0  0
  7  8  1  0  0  0  0
  8  9  1  0  0  0  0
  8 11  1  0  0  0  0
  9 10  1  0  0  0  0
 10 12  1  0  0  0  0
M  END
> <Index>
16131

> <PropertyFieldDistance>
nan

$$$$
6507942
BBcorina  12272117083D 1   1.00000     0.00000 
CORINA 4.3.0 0026  30.10.2019
  8  8  0  0  0  0  0  0  0  0999 V2000
  -34.2721    4.0779  -41.4485 C   0  0  0  0  0  0  0  0  0  0  0  0
  -34.9348    4.7718  -42.6404 C   0  0  0  0  0  0  0  0  0  0  0  0
  -36.4674    4.8264  -42.4451 C   0  0  0  0  0  0  0  0  0  0  0  0
  -37.0084    4.5497  -43.8703 C   0  0  0  0  0  0  0  0  0  0  0  0
  -36.0599    3.5385  -44.4034 N   0  0  0  0  0  0  0  0  0  0  0  0
  -34.7221    3.9485  -43.9242 C   0  0  0  0  0  0  0  0  0  0  0  0
  -34.0288    4.8063  -44.9846 C   0  0  0  0  0  0  0  0  0  0  0  0
  -36.1108    3.4911  -46.1120 X   0  0  0  0  0  0  0  0  0  0  0  0
  1  2  1  0  0  0  0
  2  3  1  0  0  0  0
  2  6  1  0  0  0  0
  3  4  1  0  0  0  0
  4  5  1  0  0  0  0
  5  6  1  0  0  0  0
  5  8  1  0  0  0  0
  6  7  1  0  0  0  0
M  END
> <Index>
16169

> <PropertyFieldDistance>
nan

$$$$
18231380
BBcorina  12272117083D 1   1.00000     0.00000 
CORINA 4.3.0 0026  30.10.2019
 10 10  0  0  0  0  0  0  0  0999 V2000
  -40.2785    6.1438  -44.5495 C   0  0  0  0  0  0  0  0  0  0  0  0
  -39.3066    5.2884  -43.8642 N   0  0  0  0  0  0  0  0  0  0  0  0
  -38.0791    5.1073  -44.3906 C   0  0  0  0  0  0  0  0  0  0  0  0
  -37.7792    5.6526  -45.4316 O   0  0  0  0  0  0  0  0  0  0  0  0
  -37.0792    4.2273  -43.6857 C   0  0  0  0  0  0  0  0  0  0  0  0
  -36.4203    5.0032  -42.5301 C   0  0  0  0  0  0  0  0  0  0  0  0
  -34.9081    5.0034  -42.8516 C   0  0  0  0  0  0  0  0  0  0  0  0
  -34.7583    3.7907  -43.8067 C   0  0  0  0  0  0  0  0  0  0  0  0
  -35.9999    3.8419  -44.6205 N   0  0  0  0  0  0  0  0  0  0  0  0
  -36.3245    2.3246  -45.3392 X   0  0  0  0  0  0  0  0  0  0  0  0
  1  2  1  0  0  0  0
  2  3  1  0  0  0  0
  3  4  2  0  0  0  0
  3  5  1  0  0  0  0
  5  6  1  0  0  0  0
  5  9  1  0  0  0  0
  6  7  1  0  0  0  0
  7  8  1  0  0  0  0
  8  9  1  0  0  0  0
  9 10  1  0  0  0  0
M  END
> <Index>
16177

> <PropertyFieldDistance>
nan

$$$$
8859172
BBcorina  12272117083D 1   1.00000     0.00000 
CORINA 4.3.0 0026  30.10.2019
 10 10  0  0  0  0  0  0  0  0999 V2000
  -34.1015    3.8191  -42.6517 C   0  0  0  0  0  0  0  0  0  0  0  0
  -35.5234    3.2545  -42.6648 C   0  0  0  0  0  0  0  0  0  0  0  0
  -36.2335    3.6300  -41.3626 C   0  0  0  0  0  0  0  0  0  0  0  0
  -36.2934    3.8376  -43.8526 C   0  0  0  0  0  0  0  0  0  0  0  0
  -35.6104    3.4074  -45.1545 C   0  0  0  0  0  0  0  0  0  0  0  0
  -35.5414    1.8779  -45.2008 C   0  0  0  0  0  0  0  0  0  0  0  0
  -34.8005    1.3705  -43.9609 C   0  0  0  0  0  0  0  0  0  0  0  0
  -35.4698    1.8316  -42.7855 O   0  0  0  0  0  0  0  0  0  0  0  0
  -36.3833    3.8994  -46.3028 N   0  0  0  0  0  0  0  0  0  0  0  0
  -37.9765    3.2788  -46.2803 X   0  0  0  0  0  0  0  0  0  0  0  0
  1  2  1  0  0  0  0
  2  3  1  0  0  0  0
  2  4  1  0  0  0  0
  2  8  1  0  0  0  0
  4  5  1  0  0  0  0
  5  6  1  0  0  0  0
  5  9  1  0  0  0  0
  6  7  1  0  0  0  0
  7  8  1  0  0  0  0
  9 10  1  0  0  0  0
M  END
> <Index>
16180

> <PropertyFieldDistance>
nan

$$$$
7290246
BBcorina  12272117083D 1   1.00000     0.00000 
CORINA 4.3.0 0026  30.10.2019
 11 11  0  0  0  0  0  0  0  0999 V2000
  -35.2968    7.9349  -39.5018 C   0  0  0  0  0  0  0  0  0  0  0  0
  -35.6571    6.7211  -40.2126 O   0  0  0  0  0  0  0  0  0  0  0  0
  -34.9307    6.4122  -41.2983 C   0  0  0  0  0  0  0  0  0  0  0  0
  -34.0238    7.1323  -41.6431 O   0  0  0  0  0  0  0  0  0  0  0  0
  -35.2462    5.1675  -42.0868 C   0  0  0  0  0  0  0  0  0  0  0  0
  -36.6793    5.2476  -42.6203 C   0  0  0  0  0  0  0  0  0  0  0  0
  -36.9723    4.0086  -43.4694 C   0  0  0  0  0  0  0  0  0  0  0  0
  -36.0191    3.9414  -44.5845 N   0  0  0  0  0  0  0  0  0  0  0  0
  -34.6396    3.8164  -44.0971 C   0  0  0  0  0  0  0  0  0  0  0  0
  -34.2769    5.0496  -43.2664 C   0  0  0  0  0  0  0  0  0  0  0  0
  -36.4111    2.6624  -45.6495 X   0  0  0  0  0  0  0  0  0  0  0  0
  1  2  1  0  0  0  0
  2  3  1  0  0  0  0
  3  4  2  0  0  0  0
  3  5  1  0  0  0  0
  5  6  1  0  0  0  0
  5 10  1  0  0  0  0
  6  7  1  0  0  0  0
  7  8  1  0  0  0  0
  8  9  1  0  0  0  0
  8 11  1  0  0  0  0
  9 10  1  0  0  0  0
M  END
> <Index>
16189

> <PropertyFieldDistance>
nan

$$$$
13908498
BBcorina  12272117083D 1   1.00000     0.00000 
CORINA 4.3.0 0026  30.10.2019
  7  7  0  0  0  0  0  0  0  0999 V2000
  -34.1138    4.7833  -41.6813 O   0  0  0  0  0  0  0  0  0  0  0  0
  -34.9362    5.0165  -42.8264 C   0  0  0  0  0  0  0  0  0  0  0  0
  -36.4398    4.8672  -42.4624 C   0  0  0  0  0  0  0  0  0  0  0  0
  -37.0524    4.4783  -43.8311 C   0  0  0  0  0  0  0  0  0  0  0  0
  -36.0426    3.6037  -44.4646 N   0  0  0  0  0  0  0  0  0  0  0  0
  -34.7228    3.9140  -43.8849 C   0  0  0  0  0  0  0  0  0  0  0  0
  -36.0306    3.8111  -46.1619 X   0  0  0  0  0  0  0  0  0  0  0  0
  1  2  1  0  0  0  0
  2  3  1  0  0  0  0
  2  6  1  0  0  0  0
  3  4  1  0  0  0  0
  4  5  1  0  0  0  0
  5  6  1  0  0  0  0
  5  7  1  0  0  0  0
M  END
> <Index>
16192

> <PropertyFieldDistance>
nan

$$$$
9142044
BBcorina  12272117083D 1   1.00000     0.00000 
CORINA 4.3.0 0026  30.10.2019
 11 12  0  0  0  0  0  0  0  0999 V2000
  -36.0198    3.9402  -44.5845 N   0  0  0  0  0  0  0  0  0  0  0  0
  -36.9683    4.0070  -43.4653 C   0  0  0  0  0  0  0  0  0  0  0  0
  -36.6813    5.2518  -42.6227 C   0  0  0  0  0  0  0  0  0  0  0  0
  -35.2475    5.1799  -42.0883 C   0  0  0  0  0  0  0  0  0  0  0  0
  -34.2805    5.0447  -43.2634 C   0  0  0  0  0  0  0  0  0  0  0  0
  -32.8390    4.9285  -42.7470 C   0  0  0  0  0  0  0  0  0  0  0  0
  -32.0675    6.1328  -43.3273 C   0  0  0  0  0  0  0  0  0  0  0  0
  -33.1680    7.1821  -43.6240 C   0  0  0  0  0  0  0  0  0  0  0  0
  -34.3426    6.3113  -44.1368 C   0  0  0  0  0  0  0  0  0  0  0  0
  -34.6374    3.8197  -44.1018 C   0  0  0  0  0  0  0  0  0  0  0  0
  -36.4126    2.6576  -45.6450 X   0  0  0  0  0  0  0  0  0  0  0  0
  1  2  1  0  0  0  0
  1 10  1  0  0  0  0
  1 11  1  0  0  0  0
  2  3  1  0  0  0  0
  3  4  1  0  0  0  0
  4  5  1  0  0  0  0
  5  6  1  0  0  0  0
  5  9  1  0  0  0  0
  5 10  1  0  0  0  0
  6  7  1  0  0  0  0
  7  8  1  0  0  0  0
  8  9  1  0  0  0  0
M  END
> <Index>
16194

> <PropertyFieldDistance>
nan

$$$$
11970266
BBcorina  12272117083D 1   1.00000     0.00000 
CORINA 4.3.0 0026  30.10.2019
  8  8  0  0  0  0  0  0  0  0999 V2000
  -36.0172    3.5927  -44.4913 N   0  0  0  0  0  0  0  0  0  0  0  0
  -36.3933    2.1751  -44.5753 C   0  0  0  0  0  0  0  0  0  0  0  0
  -36.1059    1.6538  -45.9846 C   0  0  0  0  0  0  0  0  0  0  0  0
  -36.6039    0.1985  -46.1165 C   0  0  0  0  0  0  0  0  0  0  0  0
  -35.4836   -0.4573  -46.9691 C   0  0  0  0  0  0  0  0  0  0  0  0
  -34.2380    0.3093  -46.4576 C   0  0  0  0  0  0  0  0  0  0  0  0
  -34.6935    1.6513  -46.2232 O   0  0  0  0  0  0  0  0  0  0  0  0
  -36.3230    4.2163  -42.9287 X   0  0  0  0  0  0  0  0  0  0  0  0
  1  2  1  0  0  0  0
  1  8  1  0  0  0  0
  2  3  1  0  0  0  0
  3  4  1  0  0  0  0
  3  7  1  0  0  0  0
  4  5  1  0  0  0  0
  5  6  1  0  0  0  0
  6  7  1  0  0  0  0
M  END
> <Index>
16198

> <PropertyFieldDistance>
nan

$$$$
15362810
BBcorina  12272117083D 1   1.00000     0.00000 
CORINA 4.3.0 0026  30.10.2019
 12 12  0  0  0  0  0  0  0  0999 V2000
  -37.3098    5.8036  -41.4466 C   0  0  0  0  0  0  0  0  0  0  0  0
  -36.5429    5.4197  -42.7136 C   0  0  0  0  0  0  0  0  0  0  0  0
  -36.9886    4.0312  -43.1799 C   0  0  0  0  0  0  0  0  0  0  0  0
  -36.1943    3.6341  -44.3516 N   0  0  0  0  0  0  0  0  0  0  0  0
  -36.6301    2.3288  -44.8652 C   0  0  0  0  0  0  0  0  0  0  0  0
  -35.6329    1.8350  -45.9154 C   0  0  0  0  0  0  0  0  0  0  0  0
  -36.0688    0.5296  -46.4289 N   0  0  0  0  0  0  0  0  0  0  0  0
  -34.7602    3.6211  -44.0286 C   0  0  0  0  0  0  0  0  0  0  0  0
  -34.3365    5.0139  -43.5548 C   0  0  0  0  0  0  0  0  0  0  0  0
  -32.8635    4.9871  -43.1420 C   0  0  0  0  0  0  0  0  0  0  0  0
  -35.1402    5.3960  -42.4352 O   0  0  0  0  0  0  0  0  0  0  0  0
  -34.9794   -0.0598  -47.6080 X   0  0  0  0  0  0  0  0  0  0  0  0
  1  2  1  0  0  0  0
  2  3  1  0  0  0  0
  2 11  1  0  0  0  0
  3  4  1  0  0  0  0
  4  5  1  0  0  0  0
  4  8  1  0  0  0  0
  5  6  1  0  0  0  0
  6  7  1  0  0  0  0
  7 12  1  0  0  0  0
  8  9  1  0  0  0  0
  9 10  1  0  0  0  0
  9 11  1  0  0  0  0
M  END
> <Index>
16199

> <PropertyFieldDistance>
nan

$$$$
9016404
BBcorina  12272117083D 1   1.00000     0.00000 
CORINA 4.3.0 0026  30.10.2019
  9  9  0  0  0  0  0  0  0  0999 V2000
  -37.7604    6.1731  -42.2030 C   0  0  0  0  0  0  0  0  0  0  0  0
  -36.7061    5.1010  -42.4861 C   0  0  0  0  0  0  0  0  0  0  0  0
  -37.0337    4.3889  -43.8036 C   0  0  0  0  0  0  0  0  0  0  0  0
  -35.9393    3.4726  -44.1479 N   0  0  0  0  0  0  0  0  0  0  0  0
  -34.6965    4.2000  -44.4346 C   0  0  0  0  0  0  0  0  0  0  0  0
  -34.2117    4.9010  -43.1655 C   0  0  0  0  0  0  0  0  0  0  0  0
  -35.3438    5.7479  -42.6229 C   0  0  0  0  0  0  0  0  0  0  0  0
  -35.1673    6.9021  -42.3146 O   0  0  0  0  0  0  0  0  0  0  0  0
  -36.3745    2.4631  -45.4576 X   0  0  0  0  0  0  0  0  0  0  0  0
  1  2  1  0  0  0  0
  2  3  1  0  0  0  0
  2  7  1  0  0  0  0
  3  4  1  0  0  0  0
  4  5  1  0  0  0  0
  4  9  1  0  0  0  0
  5  6  1  0  0  0  0
  6  7  1  0  0  0  0
  7  8  2  0  0  0  0
M  END
> <Index>
16200

> <PropertyFieldDistance>
nan

$$$$
12640242
BBcorina  12272117083D 1   1.00000     0.00000 
CORINA 4.3.0 0026  30.10.2019
  8  8  0  0  0  0  0  0  0  0999 V2000
  -35.3505    4.9215  -42.7683 O   0  0  0  0  0  0  0  0  0  0  0  0
  -36.2330    3.9217  -43.2817 C   0  0  0  0  0  0  0  0  0  0  0  0
  -36.2500    3.9730  -44.8195 C   0  0  0  0  0  0  0  0  0  0  0  0
  -35.7512    2.5988  -45.3118 C   0  0  0  0  0  0  0  0  0  0  0  0
  -34.9145    2.0521  -44.1285 C   0  0  0  0  0  0  0  0  0  0  0  0
  -35.7202    2.5182  -42.8905 C   0  0  0  0  0  0  0  0  0  0  0  0
  -34.8497    2.5950  -41.7097 N   0  0  0  0  0  0  0  0  0  0  0  0
  -33.4580    3.5341  -42.0344 X   0  0  0  0  0  0  0  0  0  0  0  0
  1  2  1  0  0  0  0
  2  3  1  0  0  0  0
  2  6  1  0  0  0  0
  3  4  1  0  0  0  0
  4  5  1  0  0  0  0
  5  6  1  0  0  0  0
  6  7  1  0  0  0  0
  7  8  1  0  0  0  0
M  END
> <Index>
16202

> <PropertyFieldDistance>
nan

$$$$
17509606
BBcorina  12272117083D 1   1.00000     0.00000 
CORINA 4.3.0 0026  30.10.2019
 13 14  0  0  0  0  0  0  0  0999 V2000
  -36.5513    4.0007  -38.5095 N   0  0  0  0  0  0  0  0  0  0  0  0
  -35.7507    3.5038  -39.6365 C   0  0  0  0  0  0  0  0  0  0  0  0
  -36.1422    4.2551  -40.9105 C   0  0  0  0  0  0  0  0  0  0  0  0
  -37.5957    3.9353  -41.2628 C   0  0  0  0  0  0  0  0  0  0  0  0
  -37.9561    4.6594  -42.5641 C   0  0  0  0  0  0  0  0  0  0  0  0
  -37.0047    4.1956  -43.6665 C   0  0  0  0  0  0  0  0  0  0  0  0
  -35.6140    4.5046  -43.2980 N   0  0  0  0  0  0  0  0  0  0  0  0
  -34.7246    4.1458  -44.4142 C   0  0  0  0  0  0  0  0  0  0  0  0
  -33.2879    4.5583  -44.0948 C   0  0  0  0  0  0  0  0  0  0  0  0
  -32.8375    3.8331  -42.8245 C   0  0  0  0  0  0  0  0  0  0  0  0
  -33.7855    4.2046  -41.6832 C   0  0  0  0  0  0  0  0  0  0  0  0
  -35.2220    3.8255  -42.0580 C   0  0  0  0  0  0  0  0  0  0  0  0
  -36.1444    3.1856  -37.0623 X   0  0  0  0  0  0  0  0  0  0  0  0
  1  2  1  0  0  0  0
  1 13  1  0  0  0  0
  2  3  1  0  0  0  0
  3  4  1  0  0  0  0
  3 12  1  0  0  0  0
  4  5  1  0  0  0  0
  5  6  1  0  0  0  0
  6  7  1  0  0  0  0
  7  8  1  0  0  0  0
  7 12  1  0  0  0  0
  8  9  1  0  0  0  0
  9 10  1  0  0  0  0
 10 11  1  0  0  0  0
 11 12  1  0  0  0  0
M  END
> <Index>
16207

> <PropertyFieldDistance>
nan

$$$$
6390738
BBcorina  12272117083D 1   1.00000     0.00000 
CORINA 4.3.0 0026  30.10.2019
  9  9  0  0  0  0  0  0  0  0999 V2000
  -31.7665    4.6715  -40.6536 C   0  0  0  0  0  0  0  0  0  0  0  0
  -32.5929    4.8716  -41.9256 C   0  0  0  0  0  0  0  0  0  0  0  0
  -34.0823    4.8033  -41.5822 C   0  0  0  0  0  0  0  0  0  0  0  0
  -34.9087    5.0034  -42.8542 C   0  0  0  0  0  0  0  0  0  0  0  0
  -36.4203    5.0032  -42.5302 C   0  0  0  0  0  0  0  0  0  0  0  0
  -37.0792    4.2273  -43.6856 C   0  0  0  0  0  0  0  0  0  0  0  0
  -35.9998    3.8418  -44.6205 N   0  0  0  0  0  0  0  0  0  0  0  0
  -34.7584    3.7908  -43.8067 C   0  0  0  0  0  0  0  0  0  0  0  0
  -36.3244    2.3246  -45.3392 X   0  0  0  0  0  0  0  0  0  0  0  0
  1  2  1  0  0  0  0
  2  3  1  0  0  0  0
  3  4  1  0  0  0  0
  4  5  1  0  0  0  0
  4  8  1  0  0  0  0
  5  6  1  0  0  0  0
  6  7  1  0  0  0  0
  7  8  1  0  0  0  0
  7  9  1  0  0  0  0
M  END
> <Index>
16208

> <PropertyFieldDistance>
nan

$$$$
12102886
BBcorina  12272117083D 1   1.00000     0.00000 
CORINA 4.3.0 0026  30.10.2019
 13 14  0  0  0  0  0  0  0  0999 V2000
  -35.8919    1.0347  -47.4505 N   0  0  0  0  0  0  0  0  0  0  0  0
  -35.5802    0.3254  -46.2031 C   0  0  0  0  0  0  0  0  0  0  0  0
  -35.1860    1.3368  -45.1244 C   0  0  0  0  0  0  0  0  0  0  0  0
  -36.3427    2.3152  -44.9018 C   0  0  0  0  0  0  0  0  0  0  0  0
  -36.6793    3.0052  -46.2266 C   0  0  0  0  0  0  0  0  0  0  0  0
  -37.0303    1.9454  -47.2733 C   0  0  0  0  0  0  0  0  0  0  0  0
  -35.9484    3.3239  -43.9092 N   0  0  0  0  0  0  0  0  0  0  0  0
  -37.0376    4.2818  -43.6704 C   0  0  0  0  0  0  0  0  0  0  0  0
  -36.6072    5.2766  -42.5891 C   0  0  0  0  0  0  0  0  0  0  0  0
  -35.3979    5.9223  -42.9966 O   0  0  0  0  0  0  0  0  0  0  0  0
  -34.3158    5.0188  -43.2373 C   0  0  0  0  0  0  0  0  0  0  0  0
  -34.7230    4.0215  -44.3252 C   0  0  0  0  0  0  0  0  0  0  0  0
  -36.1811   -0.0668  -48.7261 X   0  0  0  0  0  0  0  0  0  0  0  0
  1  2  1  0  0  0  0
  1  6  1  0  0  0  0
  1 13  1  0  0  0  0
  2  3  1  0  0  0  0
  3  4  1  0  0  0  0
  4  5  1  0  0  0  0
  4  7  1  0  0  0  0
  5  6  1  0  0  0  0
  7  8  1  0  0  0  0
  7 12  1  0  0  0  0
  8  9  1  0  0  0  0
  9 10  1  0  0  0  0
 10 11  1  0  0  0  0
 11 12  1  0  0  0  0
M  END
> <Index>
16216

> <PropertyFieldDistance>
nan

$$$$
6484312
BBcorina  12272117083D 1   1.00000     0.00000 
CORINA 4.3.0 0026  30.10.2019
 14 14  0  0  0  0  0  0  0  0999 V2000
  -32.7572    0.4299  -44.7053 C   0  0  0  0  0  0  0  0  0  0  0  0
  -34.1338   -0.2011  -44.9238 C   0  0  0  0  0  0  0  0  0  0  0  0
  -34.2575   -1.4640  -44.0689 C   0  0  0  0  0  0  0  0  0  0  0  0
  -35.1500    0.7304  -44.5474 O   0  0  0  0  0  0  0  0  0  0  0  0
  -35.5848    1.5780  -45.6124 C   0  0  0  0  0  0  0  0  0  0  0  0
  -36.6674    2.5289  -45.0979 C   0  0  0  0  0  0  0  0  0  0  0  0
  -36.1050    3.3891  -44.0483 N   0  0  0  0  0  0  0  0  0  0  0  0
  -37.0920    4.3760  -43.5918 C   0  0  0  0  0  0  0  0  0  0  0  0
  -36.5239    5.1554  -42.4036 C   0  0  0  0  0  0  0  0  0  0  0  0
  -35.2320    5.8578  -42.8307 C   0  0  0  0  0  0  0  0  0  0  0  0
  -34.2391    4.8128  -43.3471 C   0  0  0  0  0  0  0  0  0  0  0  0
  -34.8733    4.0434  -44.5079 C   0  0  0  0  0  0  0  0  0  0  0  0
  -34.6519    6.5612  -41.6789 N   0  0  0  0  0  0  0  0  0  0  0  0
  -34.1886    5.4583  -40.4570 X   0  0  0  0  0  0  0  0  0  0  0  0
  1  2  1  0  0  0  0
  2  3  1  0  0  0  0
  2  4  1  0  0  0  0
  4  5  1  0  0  0  0
  5  6  1  0  0  0  0
  6  7  1  0  0  0  0
  7  8  1  0  0  0  0
  7 12  1  0  0  0  0
  8  9  1  0  0  0  0
  9 10  1  0  0  0  0
 10 11  1  0  0  0  0
 10 13  1  0  0  0  0
 11 12  1  0  0  0  0
 13 14  1  0  0  0  0
M  END
> <Index>
16228

> <PropertyFieldDistance>
nan

$$$$
9449568
BBcorina  12272117083D 1   1.00000     0.00000 
CORINA 4.3.0 0026  30.10.2019
 12 12  0  0  0  0  0  0  0  0999 V2000
  -36.2986    0.5707  -46.6098 C   0  0  0  0  0  0  0  0  0  0  0  0
  -35.6714    1.4674  -45.5404 C   0  0  0  0  0  0  0  0  0  0  0  0
  -36.6313    2.6112  -45.2070 C   0  0  0  0  0  0  0  0  0  0  0  0
  -36.0864    3.3987  -44.0931 N   0  0  0  0  0  0  0  0  0  0  0  0
  -37.0782    4.3647  -43.5959 C   0  0  0  0  0  0  0  0  0  0  0  0
  -36.4907    5.1201  -42.4010 C   0  0  0  0  0  0  0  0  0  0  0  0
  -35.2695    5.7516  -42.7952 O   0  0  0  0  0  0  0  0  0  0  0  0
  -34.2816    4.8401  -43.2836 C   0  0  0  0  0  0  0  0  0  0  0  0
  -34.8458    4.0816  -44.4879 C   0  0  0  0  0  0  0  0  0  0  0  0
  -35.4119    0.6772  -44.3296 N   0  0  0  0  0  0  0  0  0  0  0  0
  -34.4022   -0.3591  -44.5835 C   0  0  0  0  0  0  0  0  0  0  0  0
  -36.8563   -0.0098  -43.7248 X   0  0  0  0  0  0  0  0  0  0  0  0
  1  2  1  0  0  0  0
  2  3  1  0  0  0  0
  2 10  1  0  0  0  0
  3  4  1  0  0  0  0
  4  5  1  0  0  0  0
  4  9  1  0  0  0  0
  5  6  1  0  0  0  0
  6  7  1  0  0  0  0
  7  8  1  0  0  0  0
  8  9  1  0  0  0  0
 10 11  1  0  0  0  0
 10 12  1  0  0  0  0
M  END
> <Index>
16231

> <PropertyFieldDistance>
nan

$$$$
10330334
BBcorina  12272117083D 1   1.00000     0.00000 
CORINA 4.3.0 0026  30.10.2019
 10 11  0  0  0  0  0  0  0  0999 V2000
  -35.9578    3.4732  -44.1633 N   0  0  0  0  0  0  0  0  0  0  0  0
  -36.9669    4.4893  -43.8336 C   0  0  0  0  0  0  0  0  0  0  0  0
  -36.7061    5.0405  -42.4255 C   0  0  0  0  0  0  0  0  0  0  0  0
  -35.2451    5.4075  -42.3344 C   0  0  0  0  0  0  0  0  0  0  0  0
  -34.6284    6.1723  -41.4335 N   0  0  0  0  0  0  0  0  0  0  0  0
  -33.3552    6.2380  -41.7274 C   0  0  0  0  0  0  0  0  0  0  0  0
  -33.1264    5.5035  -42.8414 N   0  0  0  0  0  0  0  0  0  0  0  0
  -34.3204    4.9784  -43.2233 C   0  0  0  0  0  0  0  0  0  0  0  0
  -34.6361    4.0823  -44.3920 C   0  0  0  0  0  0  0  0  0  0  0  0
  -36.4446    2.5410  -45.5117 X   0  0  0  0  0  0  0  0  0  0  0  0
  1  2  1  0  0  0  0
  1  9  1  0  0  0  0
  1 10  1  0  0  0  0
  2  3  1  0  0  0  0
  3  4  1  0  0  0  0
  4  5  1  0  0  0  0
  4  8  2  0  0  0  0
  5  6  2  0  0  0  0
  6  7  1  0  0  0  0
  7  8  1  0  0  0  0
  8  9  1  0  0  0  0
M  END
> <Index>
16249

> <PropertyFieldDistance>
nan

$$$$
14787446
BBcorina  12272117083D 1   1.00000     0.00000 
CORINA 4.3.0 0026  30.10.2019
 10 10  0  0  0  0  0  0  0  0999 V2000
  -35.6022    8.2524  -39.8027 O   0  0  0  0  0  0  0  0  0  0  0  0
  -35.9828    7.6214  -41.0271 C   0  0  0  0  0  0  0  0  0  0  0  0
  -34.9460    6.5589  -41.3971 C   0  0  0  0  0  0  0  0  0  0  0  0
  -35.3535    5.8833  -42.7079 C   0  0  0  0  0  0  0  0  0  0  0  0
  -36.6585    5.1099  -42.5008 C   0  0  0  0  0  0  0  0  0  0  0  0
  -37.0291    4.3869  -43.7977 C   0  0  0  0  0  0  0  0  0  0  0  0
  -35.9480    3.4664  -44.1723 N   0  0  0  0  0  0  0  0  0  0  0  0
  -34.6958    4.1916  -44.4226 C   0  0  0  0  0  0  0  0  0  0  0  0
  -34.2559    4.9088  -43.1442 C   0  0  0  0  0  0  0  0  0  0  0  0
  -36.3899    2.5211  -45.5270 X   0  0  0  0  0  0  0  0  0  0  0  0
  1  2  1  0  0  0  0
  2  3  1  0  0  0  0
  3  4  1  0  0  0  0
  4  5  1  0  0  0  0
  4  9  1  0  0  0  0
  5  6  1  0  0  0  0
  6  7  1  0  0  0  0
  7  8  1  0  0  0  0
  7 10  1  0  0  0  0
  8  9  1  0  0  0  0
M  END
> <Index>
16252

> <PropertyFieldDistance>
nan

$$$$
11985728
BBcorina  12272117083D 1   1.00000     0.00000 
CORINA 4.3.0 0026  30.10.2019
 10 10  0  0  0  0  0  0  0  0999 V2000
  -33.5547    6.4102  -40.8890 O   0  0  0  0  0  0  0  0  0  0  0  0
  -34.9269    6.4323  -41.2873 C   0  0  0  0  0  0  0  0  0  0  0  0
  -35.2462    5.1676  -42.0870 C   0  0  0  0  0  0  0  0  0  0  0  0
  -35.1140    4.0225  -41.2424 O   0  0  0  0  0  0  0  0  0  0  0  0
  -36.6793    5.2475  -42.6202 C   0  0  0  0  0  0  0  0  0  0  0  0
  -36.9723    4.0087  -43.4695 C   0  0  0  0  0  0  0  0  0  0  0  0
  -36.0192    3.9414  -44.5845 N   0  0  0  0  0  0  0  0  0  0  0  0
  -34.6396    3.8164  -44.0970 C   0  0  0  0  0  0  0  0  0  0  0  0
  -34.2770    5.0496  -43.2665 C   0  0  0  0  0  0  0  0  0  0  0  0
  -36.4110    2.6622  -45.6494 X   0  0  0  0  0  0  0  0  0  0  0  0
  1  2  1  0  0  0  0
  2  3  1  0  0  0  0
  3  4  1  0  0  0  0
  3  5  1  0  0  0  0
  3  9  1  0  0  0  0
  5  6  1  0  0  0  0
  6  7  1  0  0  0  0
  7  8  1  0  0  0  0
  7 10  1  0  0  0  0
  8  9  1  0  0  0  0
M  END
> <Index>
16267

> <PropertyFieldDistance>
nan

$$$$
9866374
BBcorina  12272117083D 1   1.00000     0.00000 
CORINA 4.3.0 0026  30.10.2019
 14 15  0  0  0  0  0  0  0  0999 V2000
  -33.9778   -0.1682  -45.1994 N   0  0  0  0  0  0  0  0  0  0  0  0
  -34.5093   -0.9905  -46.2937 C   0  0  0  0  0  0  0  0  0  0  0  0
  -35.0386   -0.0819  -47.4056 C   0  0  0  0  0  0  0  0  0  0  0  0
  -36.1383    0.8210  -46.8401 C   0  0  0  0  0  0  0  0  0  0  0  0
  -35.5716    1.6312  -45.6708 C   0  0  0  0  0  0  0  0  0  0  0  0
  -36.6796    2.4929  -45.0620 C   0  0  0  0  0  0  0  0  0  0  0  0
  -36.1108    3.3562  -44.0184 N   0  0  0  0  0  0  0  0  0  0  0  0
  -37.0879    4.3615  -43.5758 C   0  0  0  0  0  0  0  0  0  0  0  0
  -36.4762    5.1987  -42.4493 C   0  0  0  0  0  0  0  0  0  0  0  0
  -35.2596    5.7926  -42.9104 O   0  0  0  0  0  0  0  0  0  0  0  0
  -34.2849    4.8420  -43.3486 C   0  0  0  0  0  0  0  0  0  0  0  0
  -34.8745    4.0012  -44.4841 C   0  0  0  0  0  0  0  0  0  0  0  0
  -35.0269    0.6729  -44.6092 C   0  0  0  0  0  0  0  0  0  0  0  0
  -33.2306   -1.1416  -44.0085 X   0  0  0  0  0  0  0  0  0  0  0  0
  1  2  1  0  0  0  0
  1 13  1  0  0  0  0
  1 14  1  0  0  0  0
  2  3  1  0  0  0  0
  3  4  1  0  0  0  0
  4  5  1  0  0  0  0
  5  6  1  0  0  0  0
  5 13  1  0  0  0  0
  6  7  1  0  0  0  0
  7  8  1  0  0  0  0
  7 12  1  0  0  0  0
  8  9  1  0  0  0  0
  9 10  1  0  0  0  0
 10 11  1  0  0  0  0
 11 12  1  0  0  0  0
M  END
> <Index>
16269

> <PropertyFieldDistance>
nan

$$$$
7427234
BBcorina  12272117083D 1   1.00000     0.00000 
CORINA 4.3.0 0026  30.10.2019
 11 11  0  0  0  0  0  0  0  0999 V2000
  -37.2883    7.2982  -41.2885 C   0  0  0  0  0  0  0  0  0  0  0  0
  -37.7047    6.3244  -42.3927 C   0  0  0  0  0  0  0  0  0  0  0  0
  -37.9066    7.0629  -43.6464 N   0  0  0  0  0  0  0  0  0  0  0  0
  -36.6072    5.2766  -42.5891 C   0  0  0  0  0  0  0  0  0  0  0  0
  -37.0377    4.2819  -43.6704 C   0  0  0  0  0  0  0  0  0  0  0  0
  -35.9484    3.3239  -43.9092 N   0  0  0  0  0  0  0  0  0  0  0  0
  -36.3427    2.3152  -44.9018 C   0  0  0  0  0  0  0  0  0  0  0  0
  -34.7230    4.0215  -44.3252 C   0  0  0  0  0  0  0  0  0  0  0  0
  -34.3157    5.0187  -43.2374 C   0  0  0  0  0  0  0  0  0  0  0  0
  -35.3980    5.9223  -42.9967 O   0  0  0  0  0  0  0  0  0  0  0  0
  -39.4992    7.6773  -43.7461 X   0  0  0  0  0  0  0  0  0  0  0  0
  1  2  1  0  0  0  0
  2  3  1  0  0  0  0
  2  4  1  0  0  0  0
  3 11  1  0  0  0  0
  4  5  1  0  0  0  0
  4 10  1  0  0  0  0
  5  6  1  0  0  0  0
  6  7  1  0  0  0  0
  6  8  1  0  0  0  0
  8  9  1  0  0  0  0
  9 10  1  0  0  0  0
M  END
> <Index>
16285

> <PropertyFieldDistance>
nan

$$$$
10124476
BBcorina  12272117083D 1   1.00000     0.00000 
CORINA 4.3.0 0026  30.10.2019
 15 16  0  0  0  0  0  0  0  0999 V2000
  -32.9633    5.4346  -43.2393 N   0  0  0  0  0  0  0  0  0  0  0  0
  -34.3586    5.1671  -43.6129 C   0  0  0  0  0  0  0  0  0  0  0  0
  -35.2880    5.6527  -42.4982 C   0  0  0  0  0  0  0  0  0  0  0  0
  -36.7434    5.4049  -42.9010 C   0  0  0  0  0  0  0  0  0  0  0  0
  -36.9664    3.9020  -43.0959 C   0  0  0  0  0  0  0  0  0  0  0  0
  -35.9792    3.3986  -44.0608 N   0  0  0  0  0  0  0  0  0  0  0  0
  -34.5541    3.6566  -43.8130 C   0  0  0  0  0  0  0  0  0  0  0  0
  -36.3729    2.7086  -45.1495 C   0  0  0  0  0  0  0  0  0  0  0  0
  -35.5671    2.4277  -46.0155 O   0  0  0  0  0  0  0  0  0  0  0  0
  -37.6600    2.3300  -45.2782 N   0  0  0  0  0  0  0  0  0  0  0  0
  -38.6932    2.4275  -44.2311 C   0  0  0  0  0  0  0  0  0  0  0  0
  -39.7449    1.3555  -44.6107 C   0  0  0  0  0  0  0  0  0  0  0  0
  -39.7447    1.4534  -46.1592 C   0  0  0  0  0  0  0  0  0  0  0  0
  -38.2663    1.7518  -46.4864 C   0  0  0  0  0  0  0  0  0  0  0  0
  -32.5180    4.5398  -41.8518 X   0  0  0  0  0  0  0  0  0  0  0  0
  1  2  1  0  0  0  0
  1 15  1  0  0  0  0
  2  3  1  0  0  0  0
  2  7  1  0  0  0  0
  3  4  1  0  0  0  0
  4  5  1  0  0  0  0
  5  6  1  0  0  0  0
  6  7  1  0  0  0  0
  6  8  1  0  0  0  0
  8  9  2  0  0  0  0
  8 10  1  0  0  0  0
 10 11  1  0  0  0  0
 10 14  1  0  0  0  0
 11 12  1  0  0  0  0
 12 13  1  0  0  0  0
 13 14  1  0  0  0  0
M  END
> <Index>
16312

> <PropertyFieldDistance>
nan

$$$$
13968806
BBcorina  12272117083D 1   1.00000     0.00000 
CORINA 4.3.0 0026  30.10.2019
 11 12  0  0  0  0  0  0  0  0999 V2000
  -33.5553    4.8448  -40.3138 N   0  0  0  0  0  0  0  0  0  0  0  0
  -34.8743    5.3272  -40.7446 C   0  0  0  0  0  0  0  0  0  0  0  0
  -35.2801    4.6164  -42.0374 C   0  0  0  0  0  0  0  0  0  0  0  0
  -36.6566    5.1096  -42.5007 C   0  0  0  0  0  0  0  0  0  0  0  0
  -37.0287    4.3880  -43.7992 C   0  0  0  0  0  0  0  0  0  0  0  0
  -35.9479    3.4651  -44.1711 N   0  0  0  0  0  0  0  0  0  0  0  0
  -34.6962    4.1922  -44.4235 C   0  0  0  0  0  0  0  0  0  0  0  0
  -34.2580    4.9087  -43.1432 C   0  0  0  0  0  0  0  0  0  0  0  0
  -35.3557    3.1021  -41.8053 C   0  0  0  0  0  0  0  0  0  0  0  0
  -35.7578    2.4329  -43.1426 C   0  0  0  0  0  0  0  0  0  0  0  0
  -33.0628    5.6155  -38.8690 X   0  0  0  0  0  0  0  0  0  0  0  0
  1  2  1  0  0  0  0
  1 11  1  0  0  0  0
  2  3  1  0  0  0  0
  3  4  1  0  0  0  0
  3  8  1  0  0  0  0
  3  9  1  0  0  0  0
  4  5  1  0  0  0  0
  5  6  1  0  0  0  0
  6  7  1  0  0  0  0
  6 10  1  0  0  0  0
  7  8  1  0  0  0  0
  9 10  1  0  0  0  0
M  END
> <Index>
16333

> <PropertyFieldDistance>
nan

$$$$
8624758
BBcorina  12272117083D 1   1.00000     0.00000 
CORINA 4.3.0 0026  30.10.2019
 13 13  0  0  0  0  0  0  0  0999 V2000
  -31.7389    7.1764  -39.3040 C   0  0  0  0  0  0  0  0  0  0  0  0
  -33.0666    7.3035  -39.9101 N   0  0  0  0  0  0  0  0  0  0  0  0
  -33.8538    8.5212  -39.7008 C   0  0  0  0  0  0  0  0  0  0  0  0
  -33.5615    6.3026  -40.6648 C   0  0  0  0  0  0  0  0  0  0  0  0
  -32.9078    5.2966  -40.8422 O   0  0  0  0  0  0  0  0  0  0  0  0
  -34.9273    6.4334  -41.2884 C   0  0  0  0  0  0  0  0  0  0  0  0
  -35.2463    5.1684  -42.0875 C   0  0  0  0  0  0  0  0  0  0  0  0
  -36.6796    5.2477  -42.6204 C   0  0  0  0  0  0  0  0  0  0  0  0
  -36.9723    4.0084  -43.4693 C   0  0  0  0  0  0  0  0  0  0  0  0
  -36.0194    3.9412  -44.5845 N   0  0  0  0  0  0  0  0  0  0  0  0
  -34.6397    3.8168  -44.0972 C   0  0  0  0  0  0  0  0  0  0  0  0
  -34.2763    5.0495  -43.2662 C   0  0  0  0  0  0  0  0  0  0  0  0
  -36.4111    2.6614  -45.6489 X   0  0  0  0  0  0  0  0  0  0  0  0
  1  2  1  0  0  0  0
  2  3  1  0  0  0  0
  2  4  1  0  0  0  0
  4  5  2  0  0  0  0
  4  6  1  0  0  0  0
  6  7  1  0  0  0  0
  7  8  1  0  0  0  0
  7 12  1  0  0  0  0
  8  9  1  0  0  0  0
  9 10  1  0  0  0  0
 10 11  1  0  0  0  0
 10 13  1  0  0  0  0
 11 12  1  0  0  0  0
M  END
> <Index>
16335

> <PropertyFieldDistance>
nan

$$$$
7945530
BBcorina  12272117083D 1   1.00000     0.00000 
CORINA 4.3.0 0026  30.10.2019
 15 16  0  0  0  0  0  0  0  0999 V2000
  -35.1170    0.5773  -44.6854 C   0  0  0  0  0  0  0  0  0  0  0  0
  -35.3409    1.6597  -45.7433 C   0  0  0  0  0  0  0  0  0  0  0  0
  -35.7813    1.0086  -47.0564 C   0  0  0  0  0  0  0  0  0  0  0  0
  -36.0160    2.0490  -48.0657 N   0  0  0  0  0  0  0  0  0  0  0  0
  -37.0913    2.9592  -47.6511 C   0  0  0  0  0  0  0  0  0  0  0  0
  -36.6904    3.6678  -46.3553 C   0  0  0  0  0  0  0  0  0  0  0  0
  -36.4311    2.6232  -45.2663 C   0  0  0  0  0  0  0  0  0  0  0  0
  -35.9890    3.2950  -44.0369 N   0  0  0  0  0  0  0  0  0  0  0  0
  -37.0103    4.2347  -43.5539 C   0  0  0  0  0  0  0  0  0  0  0  0
  -36.5467    4.8531  -42.2328 C   0  0  0  0  0  0  0  0  0  0  0  0
  -35.2619    5.5360  -42.4388 N   0  0  0  0  0  0  0  0  0  0  0  0
  -34.8198    6.2078  -41.2094 C   0  0  0  0  0  0  0  0  0  0  0  0
  -34.2407    4.5962  -42.9218 C   0  0  0  0  0  0  0  0  0  0  0  0
  -34.7042    3.9779  -44.2429 C   0  0  0  0  0  0  0  0  0  0  0  0
  -36.3536    1.3568  -49.5924 X   0  0  0  0  0  0  0  0  0  0  0  0
  1  2  1  0  0  0  0
  2  3  1  0  0  0  0
  2  7  1  0  0  0  0
  3  4  1  0  0  0  0
  4  5  1  0  0  0  0
  4 15  1  0  0  0  0
  5  6  1  0  0  0  0
  6  7  1  0  0  0  0
  7  8  1  0  0  0  0
  8  9  1  0  0  0  0
  8 14  1  0  0  0  0
  9 10  1  0  0  0  0
 10 11  1  0  0  0  0
 11 12  1  0  0  0  0
 11 13  1  0  0  0  0
 13 14  1  0  0  0  0
M  END
> <Index>
16359

> <PropertyFieldDistance>
nan

$$$$
10742278
BBcorina  12272117083D 1   1.00000     0.00000 
CORINA 4.3.0 0026  30.10.2019
 11 11  0  0  0  0  0  0  0  0999 V2000
  -35.0251    8.4103  -39.9861 C   0  0  0  0  0  0  0  0  0  0  0  0
  -35.4941    7.8351  -41.3241 C   0  0  0  0  0  0  0  0  0  0  0  0
  -34.9727    6.5143  -41.4837 O   0  0  0  0  0  0  0  0  0  0  0  0
  -35.3534    5.8832  -42.7080 C   0  0  0  0  0  0  0  0  0  0  0  0
  -36.6587    5.1099  -42.5007 C   0  0  0  0  0  0  0  0  0  0  0  0
  -37.0290    4.3869  -43.7978 C   0  0  0  0  0  0  0  0  0  0  0  0
  -35.9479    3.4664  -44.1723 N   0  0  0  0  0  0  0  0  0  0  0  0
  -34.6959    4.1916  -44.4226 C   0  0  0  0  0  0  0  0  0  0  0  0
  -34.2559    4.9088  -43.1443 C   0  0  0  0  0  0  0  0  0  0  0  0
  -32.9630    5.6821  -43.4116 C   0  0  0  0  0  0  0  0  0  0  0  0
  -36.3899    2.5210  -45.5269 X   0  0  0  0  0  0  0  0  0  0  0  0
  1  2  1  0  0  0  0
  2  3  1  0  0  0  0
  3  4  1  0  0  0  0
  4  5  1  0  0  0  0
  4  9  1  0  0  0  0
  5  6  1  0  0  0  0
  6  7  1  0  0  0  0
  7  8  1  0  0  0  0
  7 11  1  0  0  0  0
  8  9  1  0  0  0  0
  9 10  1  0  0  0  0
M  END
> <Index>
16360

> <PropertyFieldDistance>
nan

$$$$
8644068
BBcorina  12272117083D 1   1.00000     0.00000 
CORINA 4.3.0 0026  30.10.2019
 16 17  0  0  0  0  0  0  0  0999 V2000
  -38.8743    2.3067  -46.0553 C   0  0  0  0  0  0  0  0  0  0  0  0
  -37.5670    2.3715  -46.7132 N   0  0  0  0  0  0  0  0  0  0  0  0
  -37.3386    2.5690  -48.0483 C   0  0  0  0  0  0  0  0  0  0  0  0
  -36.0030    2.5585  -48.2207 C   0  0  0  0  0  0  0  0  0  0  0  0
  -35.4314    2.3648  -47.0229 N   0  0  0  0  0  0  0  0  0  0  0  0
  -36.3623    2.2471  -46.1159 C   0  0  0  0  0  0  0  0  0  0  0  0
  -36.1310    2.0169  -44.6446 C   0  0  0  0  0  0  0  0  0  0  0  0
  -35.8949    3.3012  -43.9806 N   0  0  0  0  0  0  0  0  0  0  0  0
  -37.0312    3.9658  -43.3549 C   0  0  0  0  0  0  0  0  0  0  0  0
  -36.7315    5.4498  -43.1400 C   0  0  0  0  0  0  0  0  0  0  0  0
  -35.3796    5.5795  -42.4278 C   0  0  0  0  0  0  0  0  0  0  0  0
  -34.2810    5.1143  -43.3868 C   0  0  0  0  0  0  0  0  0  0  0  0
  -33.0166    4.9788  -42.6514 N   0  0  0  0  0  0  0  0  0  0  0  0
  -34.6537    3.7887  -43.9861 C   0  0  0  0  0  0  0  0  0  0  0  0
  -33.7792    3.1265  -44.5035 O   0  0  0  0  0  0  0  0  0  0  0  0
  -33.1293    3.7591  -41.4582 X   0  0  0  0  0  0  0  0  0  0  0  0
  1  2  1  0  0  0  0
  2  3  1  0  0  0  0
  2  6  1  0  0  0  0
  3  4  2  0  0  0  0
  4  5  1  0  0  0  0
  5  6  2  0  0  0  0
  6  7  1  0  0  0  0
  7  8  1  0  0  0  0
  8  9  1  0  0  0  0
  8 14  1  0  0  0  0
  9 10  1  0  0  0  0
 10 11  1  0  0  0  0
 11 12  1  0  0  0  0
 12 13  1  0  0  0  0
 12 14  1  0  0  0  0
 13 16  1  0  0  0  0
 14 15  2  0  0  0  0
M  END
> <Index>
16365

> <PropertyFieldDistance>
nan

$$$$
13571526
BBcorina  12272117083D 1   1.00000     0.00000 
CORINA 4.3.0 0026  30.10.2019
 16 17  0  0  0  0  0  0  0  0999 V2000
  -37.2862   -0.7271  -47.4805 F   0  0  0  0  0  0  0  0  0  0  0  0
  -36.9686    0.2975  -46.6592 C   0  0  0  0  0  0  0  0  0  0  0  0
  -37.0528    1.6019  -47.1164 C   0  0  0  0  0  0  0  0  0  0  0  0
  -36.7283    2.6508  -46.2786 C   0  0  0  0  0  0  0  0  0  0  0  0
  -36.3173    2.3966  -44.9769 C   0  0  0  0  0  0  0  0  0  0  0  0
  -36.2284    1.0877  -44.5219 C   0  0  0  0  0  0  0  0  0  0  0  0
  -36.5590    0.0420  -45.3614 C   0  0  0  0  0  0  0  0  0  0  0  0
  -35.9872    3.4586  -44.1260 N   0  0  0  0  0  0  0  0  0  0  0  0
  -37.0447    4.0241  -43.2975 C   0  0  0  0  0  0  0  0  0  0  0  0
  -36.6545    5.4204  -42.8092 C   0  0  0  0  0  0  0  0  0  0  0  0
  -35.2546    5.3490  -42.1876 C   0  0  0  0  0  0  0  0  0  0  0  0
  -34.2457    5.0486  -43.2989 C   0  0  0  0  0  0  0  0  0  0  0  0
  -32.9460    4.7151  -42.7011 N   0  0  0  0  0  0  0  0  0  0  0  0
  -34.7253    3.8894  -44.1246 C   0  0  0  0  0  0  0  0  0  0  0  0
  -33.9215    3.3140  -44.8275 O   0  0  0  0  0  0  0  0  0  0  0  0
  -33.0715    3.3435  -41.6875 X   0  0  0  0  0  0  0  0  0  0  0  0
  1  2  1  0  0  0  0
  2  3  2  0  0  0  0
  2  7  1  0  0  0  0
  3  4  1  0  0  0  0
  4  5  2  0  0  0  0
  5  6  1  0  0  0  0
  5  8  1  0  0  0  0
  6  7  2  0  0  0  0
  8  9  1  0  0  0  0
  8 14  1  0  0  0  0
  9 10  1  0  0  0  0
 10 11  1  0  0  0  0
 11 12  1  0  0  0  0
 12 13  1  0  0  0  0
 12 14  1  0  0  0  0
 13 16  1  0  0  0  0
 14 15  2  0  0  0  0
M  END
> <Index>
16368

> <PropertyFieldDistance>
nan

$$$$
7920870
BBcorina  12272117083D 1   1.00000     0.00000 
CORINA 4.3.0 0026  30.10.2019
 16 17  0  0  0  0  0  0  0  0999 V2000
  -35.7969    0.8326  -43.2668 F   0  0  0  0  0  0  0  0  0  0  0  0
  -36.2153    1.0848  -44.5263 C   0  0  0  0  0  0  0  0  0  0  0  0
  -36.5421    0.0391  -45.3699 C   0  0  0  0  0  0  0  0  0  0  0  0
  -36.9696    0.2976  -46.6597 C   0  0  0  0  0  0  0  0  0  0  0  0
  -37.0718    1.6008  -47.1094 C   0  0  0  0  0  0  0  0  0  0  0  0
  -36.7526    2.6510  -46.2698 C   0  0  0  0  0  0  0  0  0  0  0  0
  -36.3174    2.3967  -44.9769 C   0  0  0  0  0  0  0  0  0  0  0  0
  -35.9873    3.4588  -44.1259 N   0  0  0  0  0  0  0  0  0  0  0  0
  -37.0447    4.0241  -43.2971 C   0  0  0  0  0  0  0  0  0  0  0  0
  -36.6543    5.4200  -42.8099 C   0  0  0  0  0  0  0  0  0  0  0  0
  -35.2546    5.3492  -42.1877 C   0  0  0  0  0  0  0  0  0  0  0  0
  -34.2458    5.0487  -43.2990 C   0  0  0  0  0  0  0  0  0  0  0  0
  -32.9455    4.7172  -42.7012 N   0  0  0  0  0  0  0  0  0  0  0  0
  -34.7252    3.8893  -44.1243 C   0  0  0  0  0  0  0  0  0  0  0  0
  -33.9216    3.3141  -44.8276 O   0  0  0  0  0  0  0  0  0  0  0  0
  -33.0450    3.2841  -41.7737 X   0  0  0  0  0  0  0  0  0  0  0  0
  1  2  1  0  0  0  0
  2  3  2  0  0  0  0
  2  7  1  0  0  0  0
  3  4  1  0  0  0  0
  4  5  2  0  0  0  0
  5  6  1  0  0  0  0
  6  7  2  0  0  0  0
  7  8  1  0  0  0  0
  8  9  1  0  0  0  0
  8 14  1  0  0  0  0
  9 10  1  0  0  0  0
 10 11  1  0  0  0  0
 11 12  1  0  0  0  0
 12 13  1  0  0  0  0
 12 14  1  0  0  0  0
 13 16  1  0  0  0  0
 14 15  2  0  0  0  0
M  END
> <Index>
16369

> <PropertyFieldDistance>
nan

$$$$
8687290
BBcorina  12272117083D 1   1.00000     0.00000 
CORINA 4.3.0 0026  30.10.2019
 16 17  0  0  0  0  0  0  0  0999 V2000
  -33.2384    5.7457  -44.2617 N   0  0  0  0  0  0  0  0  0  0  0  0
  -34.2818    5.1415  -43.4225 C   0  0  0  0  0  0  0  0  0  0  0  0
  -35.5054    6.0606  -43.3921 C   0  0  0  0  0  0  0  0  0  0  0  0
  -36.6694    5.2970  -42.7491 C   0  0  0  0  0  0  0  0  0  0  0  0
  -37.0838    4.1591  -43.6830 C   0  0  0  0  0  0  0  0  0  0  0  0
  -35.9215    3.3723  -44.0754 N   0  0  0  0  0  0  0  0  0  0  0  0
  -36.1505    2.0240  -44.6006 C   0  0  0  0  0  0  0  0  0  0  0  0
  -36.3164    2.0893  -46.0970 C   0  0  0  0  0  0  0  0  0  0  0  0
  -35.2252    1.8674  -46.9153 C   0  0  0  0  0  0  0  0  0  0  0  0
  -35.3897    1.9241  -48.2911 C   0  0  0  0  0  0  0  0  0  0  0  0
  -36.6487    2.2138  -48.7937 C   0  0  0  0  0  0  0  0  0  0  0  0
  -37.6933    2.4241  -47.9133 C   0  0  0  0  0  0  0  0  0  0  0  0
  -37.5013    2.3570  -46.6105 N   0  0  0  0  0  0  0  0  0  0  0  0
  -34.6621    3.8006  -43.9814 C   0  0  0  0  0  0  0  0  0  0  0  0
  -33.7766    3.0701  -44.3726 O   0  0  0  0  0  0  0  0  0  0  0  0
  -33.8288    6.0731  -45.8328 X   0  0  0  0  0  0  0  0  0  0  0  0
  1  2  1  0  0  0  0
  1 16  1  0  0  0  0
  2  3  1  0  0  0  0
  2 14  1  0  0  0  0
  3  4  1  0  0  0  0
  4  5  1  0  0  0  0
  5  6  1  0  0  0  0
  6  7  1  0  0  0  0
  6 14  1  0  0  0  0
  7  8  1  0  0  0  0
  8  9  2  0  0  0  0
  8 13  1  0  0  0  0
  9 10  1  0  0  0  0
 10 11  2  0  0  0  0
 11 12  1  0  0  0  0
 12 13  2  0  0  0  0
 14 15  2  0  0  0  0
M  END
> <Index>
16370

> <PropertyFieldDistance>
nan

$$$$
13580650
BBcorina  12272117083D 1   1.00000     0.00000 
CORINA 4.3.0 0026  30.10.2019
 12 13  0  0  0  0  0  0  0  0999 V2000
  -33.2290    5.7874  -44.1547 N   0  0  0  0  0  0  0  0  0  0  0  0
  -34.2551    5.1027  -43.3570 C   0  0  0  0  0  0  0  0  0  0  0  0
  -35.4370    6.0482  -43.1295 C   0  0  0  0  0  0  0  0  0  0  0  0
  -36.5994    5.2384  -42.5422 C   0  0  0  0  0  0  0  0  0  0  0  0
  -37.1042    4.2637  -43.6068 C   0  0  0  0  0  0  0  0  0  0  0  0
  -35.9951    3.5038  -44.1697 N   0  0  0  0  0  0  0  0  0  0  0  0
  -36.3042    2.2551  -44.8708 C   0  0  0  0  0  0  0  0  0  0  0  0
  -37.0357    1.1657  -44.0840 C   0  0  0  0  0  0  0  0  0  0  0  0
  -37.7755    1.9559  -45.1654 C   0  0  0  0  0  0  0  0  0  0  0  0
  -34.7167    3.8740  -44.0867 C   0  0  0  0  0  0  0  0  0  0  0  0
  -33.8822    3.1810  -44.6293 O   0  0  0  0  0  0  0  0  0  0  0  0
  -33.8799    6.3604  -45.6285 X   0  0  0  0  0  0  0  0  0  0  0  0
  1  2  1  0  0  0  0
  1 12  1  0  0  0  0
  2  3  1  0  0  0  0
  2 10  1  0  0  0  0
  3  4  1  0  0  0  0
  4  5  1  0  0  0  0
  5  6  1  0  0  0  0
  6  7  1  0  0  0  0
  6 10  1  0  0  0  0
  7  8  1  0  0  0  0
  7  9  1  0  0  0  0
  8  9  1  0  0  0  0
 10 11  2  0  0  0  0
M  END
> <Index>
16374

> <PropertyFieldDistance>
nan

$$$$
9162666
BBcorina  12272117083D 1   1.00000     0.00000 
CORINA 4.3.0 0026  30.10.2019
 15 16  0  0  0  0  0  0  0  0999 V2000
  -32.9425    4.7306  -42.6992 N   0  0  0  0  0  0  0  0  0  0  0  0
  -34.2434    5.0593  -43.2973 C   0  0  0  0  0  0  0  0  0  0  0  0
  -35.2515    5.3635  -42.1864 C   0  0  0  0  0  0  0  0  0  0  0  0
  -36.6517    5.4314  -42.8079 C   0  0  0  0  0  0  0  0  0  0  0  0
  -37.0418    4.0335  -43.2897 C   0  0  0  0  0  0  0  0  0  0  0  0
  -35.9847    3.4656  -44.1171 N   0  0  0  0  0  0  0  0  0  0  0  0
  -36.3302    2.3511  -45.0031 C   0  0  0  0  0  0  0  0  0  0  0  0
  -36.0458    2.7457  -46.4537 C   0  0  0  0  0  0  0  0  0  0  0  0
  -36.4066    1.5818  -47.3789 C   0  0  0  0  0  0  0  0  0  0  0  0
  -35.5669    0.3574  -47.0094 C   0  0  0  0  0  0  0  0  0  0  0  0
  -35.8514   -0.0372  -45.5587 C   0  0  0  0  0  0  0  0  0  0  0  0
  -35.4906    1.1267  -44.6335 C   0  0  0  0  0  0  0  0  0  0  0  0
  -34.7228    3.8967  -44.1180 C   0  0  0  0  0  0  0  0  0  0  0  0
  -33.9196    3.3194  -44.8198 O   0  0  0  0  0  0  0  0  0  0  0  0
  -33.0407    3.3008  -41.7663 X   0  0  0  0  0  0  0  0  0  0  0  0
  1  2  1  0  0  0  0
  1 15  1  0  0  0  0
  2  3  1  0  0  0  0
  2 13  1  0  0  0  0
  3  4  1  0  0  0  0
  4  5  1  0  0  0  0
  5  6  1  0  0  0  0
  6  7  1  0  0  0  0
  6 13  1  0  0  0  0
  7  8  1  0  0  0  0
  7 12  1  0  0  0  0
  8  9  1  0  0  0  0
  9 10  1  0  0  0  0
 10 11  1  0  0  0  0
 11 12  1  0  0  0  0
 13 14  2  0  0  0  0
M  END
> <Index>
16376

> <PropertyFieldDistance>
nan

$$$$
15424044
BBcorina  12272117083D 1   1.00000     0.00000 
CORINA 4.3.0 0026  30.10.2019
 16 17  0  0  0  0  0  0  0  0999 V2000
  -37.4141   -1.1355  -47.8079 Br  0  0  0  0  0  0  0  0  0  0  0  0
  -36.9689    0.2986  -46.6585 C   0  0  0  0  0  0  0  0  0  0  0  0
  -37.0533    1.6017  -47.1157 C   0  0  0  0  0  0  0  0  0  0  0  0
  -36.7283    2.6510  -46.2785 C   0  0  0  0  0  0  0  0  0  0  0  0
  -36.3171    2.3971  -44.9766 C   0  0  0  0  0  0  0  0  0  0  0  0
  -36.2283    1.0879  -44.5220 C   0  0  0  0  0  0  0  0  0  0  0  0
  -36.5591    0.0428  -45.3619 C   0  0  0  0  0  0  0  0  0  0  0  0
  -35.9872    3.4585  -44.1261 N   0  0  0  0  0  0  0  0  0  0  0  0
  -37.0448    4.0240  -43.2976 C   0  0  0  0  0  0  0  0  0  0  0  0
  -36.6546    5.4202  -42.8092 C   0  0  0  0  0  0  0  0  0  0  0  0
  -35.2546    5.3489  -42.1876 C   0  0  0  0  0  0  0  0  0  0  0  0
  -34.2457    5.0485  -43.2989 C   0  0  0  0  0  0  0  0  0  0  0  0
  -32.9461    4.7150  -42.7011 N   0  0  0  0  0  0  0  0  0  0  0  0
  -34.7253    3.8893  -44.1247 C   0  0  0  0  0  0  0  0  0  0  0  0
  -33.9215    3.3140  -44.8277 O   0  0  0  0  0  0  0  0  0  0  0  0
  -33.0715    3.3435  -41.6877 X   0  0  0  0  0  0  0  0  0  0  0  0
  1  2  1  0  0  0  0
  2  3  2  0  0  0  0
  2  7  1  0  0  0  0
  3  4  1  0  0  0  0
  4  5  2  0  0  0  0
  5  6  1  0  0  0  0
  5  8  1  0  0  0  0
  6  7  2  0  0  0  0
  8  9  1  0  0  0  0
  8 14  1  0  0  0  0
  9 10  1  0  0  0  0
 10 11  1  0  0  0  0
 11 12  1  0  0  0  0
 12 13  1  0  0  0  0
 12 14  1  0  0  0  0
 13 16  1  0  0  0  0
 14 15  2  0  0  0  0
M  END
> <Index>
16377

> <PropertyFieldDistance>
nan

$$$$
14249484
BBcorina  12272117083D 1   1.00000     0.00000 
CORINA 4.3.0 0026  30.10.2019
 16 17  0  0  0  0  0  0  0  0999 V2000
  -36.6325   -1.3791  -44.0653 C   0  0  0  0  0  0  0  0  0  0  0  0
  -36.6067   -0.0739  -44.8182 C   0  0  0  0  0  0  0  0  0  0  0  0
  -36.8730   -0.0539  -46.1748 C   0  0  0  0  0  0  0  0  0  0  0  0
  -36.8498    1.1418  -46.8695 C   0  0  0  0  0  0  0  0  0  0  0  0
  -36.5600    2.3197  -46.2099 C   0  0  0  0  0  0  0  0  0  0  0  0
  -36.2919    2.3031  -44.8471 C   0  0  0  0  0  0  0  0  0  0  0  0
  -36.3112    1.1003  -44.1535 C   0  0  0  0  0  0  0  0  0  0  0  0
  -35.9973    3.4949  -44.1759 N   0  0  0  0  0  0  0  0  0  0  0  0
  -37.1068    4.2537  -43.6122 C   0  0  0  0  0  0  0  0  0  0  0  0
  -36.6026    5.2270  -42.5461 C   0  0  0  0  0  0  0  0  0  0  0  0
  -35.4403    6.0380  -43.1319 C   0  0  0  0  0  0  0  0  0  0  0  0
  -34.2573    5.0939  -43.3602 C   0  0  0  0  0  0  0  0  0  0  0  0
  -33.2315    5.7807  -44.1563 N   0  0  0  0  0  0  0  0  0  0  0  0
  -34.7189    3.8652  -44.0916 C   0  0  0  0  0  0  0  0  0  0  0  0
  -33.8840    3.1735  -44.6352 O   0  0  0  0  0  0  0  0  0  0  0  0
  -33.8820    6.3555  -45.6296 X   0  0  0  0  0  0  0  0  0  0  0  0
  1  2  1  0  0  0  0
  2  3  2  0  0  0  0
  2  7  1  0  0  0  0
  3  4  1  0  0  0  0
  4  5  2  0  0  0  0
  5  6  1  0  0  0  0
  6  7  2  0  0  0  0
  6  8  1  0  0  0  0
  8  9  1  0  0  0  0
  8 14  1  0  0  0  0
  9 10  1  0  0  0  0
 10 11  1  0  0  0  0
 11 12  1  0  0  0  0
 12 13  1  0  0  0  0
 12 14  1  0  0  0  0
 13 16  1  0  0  0  0
 14 15  2  0  0  0  0
M  END
> <Index>
16378

> <PropertyFieldDistance>
nan

$$$$
8694814
BBcorina  12272117083D 1   1.00000     0.00000 
CORINA 4.3.0 0026  30.10.2019
 15 16  0  0  0  0  0  0  0  0999 V2000
  -33.2317    5.7794  -44.1566 N   0  0  0  0  0  0  0  0  0  0  0  0
  -34.2578    5.0933  -43.3602 C   0  0  0  0  0  0  0  0  0  0  0  0
  -35.4403    6.0382  -43.1318 C   0  0  0  0  0  0  0  0  0  0  0  0
  -36.6025    5.2273  -42.5460 C   0  0  0  0  0  0  0  0  0  0  0  0
  -37.1067    4.2538  -43.6122 C   0  0  0  0  0  0  0  0  0  0  0  0
  -35.9971    3.4950  -44.1757 N   0  0  0  0  0  0  0  0  0  0  0  0
  -34.7188    3.8654  -44.0918 C   0  0  0  0  0  0  0  0  0  0  0  0
  -33.8838    3.1735  -44.6349 O   0  0  0  0  0  0  0  0  0  0  0  0
  -36.2918    2.3029  -44.8471 C   0  0  0  0  0  0  0  0  0  0  0  0
  -36.3180    1.0926  -44.1592 C   0  0  0  0  0  0  0  0  0  0  0  0
  -36.6147   -0.0607  -44.8674 C   0  0  0  0  0  0  0  0  0  0  0  0
  -36.8730    0.0269  -46.2225 C   0  0  0  0  0  0  0  0  0  0  0  0
  -36.8397    1.1891  -46.8451 N   0  0  0  0  0  0  0  0  0  0  0  0
  -36.5679    2.3105  -46.2082 C   0  0  0  0  0  0  0  0  0  0  0  0
  -33.8822    6.3541  -45.6299 X   0  0  0  0  0  0  0  0  0  0  0  0
  1  2  1  0  0  0  0
  1 15  1  0  0  0  0
  2  3  1  0  0  0  0
  2  7  1  0  0  0  0
  3  4  1  0  0  0  0
  4  5  1  0  0  0  0
  5  6  1  0  0  0  0
  6  7  1  0  0  0  0
  6  9  1  0  0  0  0
  7  8  2  0  0  0  0
  9 10  2  0  0  0  0
  9 14  1  0  0  0  0
 10 11  1  0  0  0  0
 11 12  2  0  0  0  0
 12 13  1  0  0  0  0
 13 14  2  0  0  0  0
M  END
> <Index>
16379

> <PropertyFieldDistance>
nan

$$$$
13475576
BBcorina  12272117083D 1   1.00000     0.00000 
CORINA 4.3.0 0026  30.10.2019
 16 17  0  0  0  0  0  0  0  0999 V2000
  -36.5089    3.6185  -46.9717 C   0  0  0  0  0  0  0  0  0  0  0  0
  -36.5478    2.3179  -46.2114 C   0  0  0  0  0  0  0  0  0  0  0  0
  -36.8326    1.1392  -46.8721 C   0  0  0  0  0  0  0  0  0  0  0  0
  -36.8676   -0.0548  -46.1752 C   0  0  0  0  0  0  0  0  0  0  0  0
  -36.6186   -0.0726  -44.8153 C   0  0  0  0  0  0  0  0  0  0  0  0
  -36.3332    1.1030  -44.1485 C   0  0  0  0  0  0  0  0  0  0  0  0
  -36.2916    2.3027  -44.8464 C   0  0  0  0  0  0  0  0  0  0  0  0
  -35.9971    3.4946  -44.1750 N   0  0  0  0  0  0  0  0  0  0  0  0
  -37.1071    4.2554  -43.6151 C   0  0  0  0  0  0  0  0  0  0  0  0
  -36.6020    5.2258  -42.5441 C   0  0  0  0  0  0  0  0  0  0  0  0
  -35.4408    6.0376  -43.1306 C   0  0  0  0  0  0  0  0  0  0  0  0
  -34.2580    5.0935  -43.3605 C   0  0  0  0  0  0  0  0  0  0  0  0
  -33.2331    5.7805  -44.1576 N   0  0  0  0  0  0  0  0  0  0  0  0
  -34.7190    3.8657  -44.0920 C   0  0  0  0  0  0  0  0  0  0  0  0
  -33.8841    3.1749  -44.6370 O   0  0  0  0  0  0  0  0  0  0  0  0
  -33.8825    6.3451  -45.6353 X   0  0  0  0  0  0  0  0  0  0  0  0
  1  2  1  0  0  0  0
  2  3  2  0  0  0  0
  2  7  1  0  0  0  0
  3  4  1  0  0  0  0
  4  5  2  0  0  0  0
  5  6  1  0  0  0  0
  6  7  2  0  0  0  0
  7  8  1  0  0  0  0
  8  9  1  0  0  0  0
  8 14  1  0  0  0  0
  9 10  1  0  0  0  0
 10 11  1  0  0  0  0
 11 12  1  0  0  0  0
 12 13  1  0  0  0  0
 12 14  1  0  0  0  0
 13 16  1  0  0  0  0
 14 15  2  0  0  0  0
M  END
> <Index>
16380

> <PropertyFieldDistance>
nan

$$$$
7920434
BBcorina  12272117083D 1   1.00000     0.00000 
CORINA 4.3.0 0026  30.10.2019
 16 17  0  0  0  0  0  0  0  0999 V2000
  -33.2365    5.7433  -44.2582 N   0  0  0  0  0  0  0  0  0  0  0  0
  -34.2812    5.1400  -43.4200 C   0  0  0  0  0  0  0  0  0  0  0  0
  -35.5042    6.0600  -43.3910 C   0  0  0  0  0  0  0  0  0  0  0  0
  -36.6694    5.2972  -42.7492 C   0  0  0  0  0  0  0  0  0  0  0  0
  -37.0837    4.1597  -43.6834 C   0  0  0  0  0  0  0  0  0  0  0  0
  -35.9214    3.3719  -44.0746 N   0  0  0  0  0  0  0  0  0  0  0  0
  -36.1510    2.0238  -44.5999 C   0  0  0  0  0  0  0  0  0  0  0  0
  -36.3152    2.0890  -46.0965 C   0  0  0  0  0  0  0  0  0  0  0  0
  -35.2104    1.9710  -46.9189 C   0  0  0  0  0  0  0  0  0  0  0  0
  -35.3610    2.0305  -48.2917 C   0  0  0  0  0  0  0  0  0  0  0  0
  -36.6166    2.2080  -48.8421 C   0  0  0  0  0  0  0  0  0  0  0  0
  -37.7214    2.3260  -48.0198 C   0  0  0  0  0  0  0  0  0  0  0  0
  -37.5714    2.2613  -46.6471 C   0  0  0  0  0  0  0  0  0  0  0  0
  -34.6636    3.8022  -43.9854 C   0  0  0  0  0  0  0  0  0  0  0  0
  -33.7796    3.0724  -44.3812 O   0  0  0  0  0  0  0  0  0  0  0  0
  -33.8237    6.0668  -45.8313 X   0  0  0  0  0  0  0  0  0  0  0  0
  1  2  1  0  0  0  0
  1 16  1  0  0  0  0
  2  3  1  0  0  0  0
  2 14  1  0  0  0  0
  3  4  1  0  0  0  0
  4  5  1  0  0  0  0
  5  6  1  0  0  0  0
  6  7  1  0  0  0  0
  6 14  1  0  0  0  0
  7  8  1  0  0  0  0
  8  9  2  0  0  0  0
  8 13  1  0  0  0  0
  9 10  1  0  0  0  0
 10 11  2  0  0  0  0
 11 12  1  0  0  0  0
 12 13  2  0  0  0  0
 14 15  2  0  0  0  0
M  END
> <Index>
16384

> <PropertyFieldDistance>
nan

$$$$
7968112
BBcorina  12272117083D 1   1.00000     0.00000 
CORINA 4.3.0 0026  30.10.2019
 14 14  0  0  0  0  0  0  0  0999 V2000
  -40.7962    4.0688  -43.1282 C   0  0  0  0  0  0  0  0  0  0  0  0
  -39.3395    3.9156  -42.6859 C   0  0  0  0  0  0  0  0  0  0  0  0
  -38.4242    3.9936  -43.9094 C   0  0  0  0  0  0  0  0  0  0  0  0
  -36.9634    3.9380  -43.4578 C   0  0  0  0  0  0  0  0  0  0  0  0
  -36.6458    5.1678  -42.6038 C   0  0  0  0  0  0  0  0  0  0  0  0
  -35.2319    5.1318  -42.2045 N   0  0  0  0  0  0  0  0  0  0  0  0
  -34.3546    5.1168  -43.3834 C   0  0  0  0  0  0  0  0  0  0  0  0
  -34.6723    3.8868  -44.2369 C   0  0  0  0  0  0  0  0  0  0  0  0
  -36.0860    3.9230  -44.6366 N   0  0  0  0  0  0  0  0  0  0  0  0
  -36.4120    2.7965  -45.5212 C   0  0  0  0  0  0  0  0  0  0  0  0
  -35.9897    1.4858  -44.8546 C   0  0  0  0  0  0  0  0  0  0  0  0
  -36.7949    1.2596  -43.6960 O   0  0  0  0  0  0  0  0  0  0  0  0
  -36.4802    0.0544  -42.9956 C   0  0  0  0  0  0  0  0  0  0  0  0
  -34.8524    6.4432  -41.1747 X   0  0  0  0  0  0  0  0  0  0  0  0
  1  2  1  0  0  0  0
  2  3  1  0  0  0  0
  3  4  1  0  0  0  0
  4  5  1  0  0  0  0
  4  9  1  0  0  0  0
  5  6  1  0  0  0  0
  6  7  1  0  0  0  0
  6 14  1  0  0  0  0
  7  8  1  0  0  0  0
  8  9  1  0  0  0  0
  9 10  1  0  0  0  0
 10 11  1  0  0  0  0
 11 12  1  0  0  0  0
 12 13  1  0  0  0  0
M  END
> <Index>
16388

> <PropertyFieldDistance>
nan

$$$$
13268958
BBcorina  12272117083D 1   1.00000     0.00000 
CORINA 4.3.0 0026  30.10.2019
 12 13  0  0  0  0  0  0  0  0999 V2000
  -35.7853    1.5125  -45.1962 C   0  0  0  0  0  0  0  0  0  0  0  0
  -36.1459    2.9611  -45.5315 C   0  0  0  0  0  0  0  0  0  0  0  0
  -36.2335    3.7414  -44.2947 N   0  0  0  0  0  0  0  0  0  0  0  0
  -37.3582    4.0069  -43.5860 C   0  0  0  0  0  0  0  0  0  0  0  0
  -37.0381    4.7300  -42.5436 N   0  0  0  0  0  0  0  0  0  0  0  0
  -35.7226    4.9491  -42.5508 C   0  0  0  0  0  0  0  0  0  0  0  0
  -34.8884    5.7240  -41.5615 C   0  0  0  0  0  0  0  0  0  0  0  0
  -33.4756    5.3588  -41.7606 N   0  0  0  0  0  0  0  0  0  0  0  0
  -33.0798    5.4856  -43.1701 C   0  0  0  0  0  0  0  0  0  0  0  0
  -33.7381    4.3683  -43.9923 C   0  0  0  0  0  0  0  0  0  0  0  0
  -35.2034    4.3389  -43.6412 C   0  0  0  0  0  0  0  0  0  0  0  0
  -32.4544    6.2876  -40.7514 X   0  0  0  0  0  0  0  0  0  0  0  0
  1  2  1  0  0  0  0
  2  3  1  0  0  0  0
  3  4  1  0  0  0  0
  3 11  1  0  0  0  0
  4  5  2  0  0  0  0
  5  6  1  0  0  0  0
  6  7  1  0  0  0  0
  6 11  2  0  0  0  0
  7  8  1  0  0  0  0
  8  9  1  0  0  0  0
  8 12  1  0  0  0  0
  9 10  1  0  0  0  0
 10 11  1  0  0  0  0
M  END
> <Index>
16392

> <PropertyFieldDistance>
nan

$$$$
12206136
BBcorina  12272117083D 1   1.00000     0.00000 
CORINA 4.3.0 0026  30.10.2019
 12 13  0  0  0  0  0  0  0  0999 V2000
  -36.0191    3.9414  -44.5845 N   0  0  0  0  0  0  0  0  0  0  0  0
  -36.9723    4.0087  -43.4695 C   0  0  0  0  0  0  0  0  0  0  0  0
  -36.6793    5.2476  -42.6202 C   0  0  0  0  0  0  0  0  0  0  0  0
  -35.2462    5.1676  -42.0870 C   0  0  0  0  0  0  0  0  0  0  0  0
  -34.2770    5.0496  -43.2665 C   0  0  0  0  0  0  0  0  0  0  0  0
  -34.6396    3.8164  -44.0970 C   0  0  0  0  0  0  0  0  0  0  0  0
  -34.9316    6.4133  -41.2993 C   0  0  0  0  0  0  0  0  0  0  0  0
  -35.0357    6.5579  -40.0064 N   0  0  0  0  0  0  0  0  0  0  0  0
  -34.6846    7.7496  -39.6744 N   0  0  0  0  0  0  0  0  0  0  0  0
  -34.3406    8.4194  -40.7405 C   0  0  0  0  0  0  0  0  0  0  0  0
  -34.4827    7.5890  -41.8016 N   0  0  0  0  0  0  0  0  0  0  0  0
  -36.4111    2.6621  -45.6494 X   0  0  0  0  0  0  0  0  0  0  0  0
  1  2  1  0  0  0  0
  1  6  1  0  0  0  0
  1 12  1  0  0  0  0
  2  3  1  0  0  0  0
  3  4  1  0  0  0  0
  4  5  1  0  0  0  0
  4  7  1  0  0  0  0
  5  6  1  0  0  0  0
  7  8  2  0  0  0  0
  7 11  1  0  0  0  0
  8  9  1  0  0  0  0
  9 10  2  0  0  0  0
 10 11  1  0  0  0  0
M  END
> <Index>
16396

> <PropertyFieldDistance>
nan

$$$$
13443310
BBcorina  12272117083D 1   1.00000     0.00000 
CORINA 4.3.0 0026  30.10.2019
 12 12  0  0  0  0  0  0  0  0999 V2000
  -38.2120    2.5336  -46.7164 C   0  0  0  0  0  0  0  0  0  0  0  0
  -36.8041    2.4479  -46.9458 O   0  0  0  0  0  0  0  0  0  0  0  0
  -36.1059    1.6538  -45.9846 C   0  0  0  0  0  0  0  0  0  0  0  0
  -36.3933    2.1751  -44.5753 C   0  0  0  0  0  0  0  0  0  0  0  0
  -36.0172    3.5927  -44.4913 N   0  0  0  0  0  0  0  0  0  0  0  0
  -36.5621    0.1846  -46.0967 C   0  0  0  0  0  0  0  0  0  0  0  0
  -36.7509   -0.2319  -47.4784 C   0  0  0  0  0  0  0  0  0  0  0  0
  -35.4464   -0.1584  -48.2981 C   0  0  0  0  0  0  0  0  0  0  0  0
  -35.2208    1.2710  -48.7103 C   0  0  0  0  0  0  0  0  0  0  0  0
  -34.3092    2.0310  -47.7279 C   0  0  0  0  0  0  0  0  0  0  0  0
  -34.6258    1.7158  -46.2534 C   0  0  0  0  0  0  0  0  0  0  0  0
  -36.3229    4.2164  -42.9288 X   0  0  0  0  0  0  0  0  0  0  0  0
  1  2  1  0  0  0  0
  2  3  1  0  0  0  0
  3  4  1  0  0  0  0
  3  6  1  0  0  0  0
  3 11  1  0  0  0  0
  4  5  1  0  0  0  0
  5 12  1  0  0  0  0
  6  7  1  0  0  0  0
  7  8  1  0  0  0  0
  8  9  1  0  0  0  0
  9 10  1  0  0  0  0
 10 11  1  0  0  0  0
M  END
> <Index>
16403

> <PropertyFieldDistance>
nan

$$$$
11682824
BBcorina  12272117083D 1   1.00000     0.00000 
CORINA 4.3.0 0026  30.10.2019
 11 11  0  0  0  0  0  0  0  0999 V2000
  -31.7058    6.9269  -43.3028 C   0  0  0  0  0  0  0  0  0  0  0  0
  -31.9457    5.4558  -43.6479 C   0  0  0  0  0  0  0  0  0  0  0  0
  -30.6422    4.6728  -43.4778 C   0  0  0  0  0  0  0  0  0  0  0  0
  -32.9415    4.9181  -42.7753 O   0  0  0  0  0  0  0  0  0  0  0  0
  -34.2769    5.0496  -43.2665 C   0  0  0  0  0  0  0  0  0  0  0  0
  -35.2461    5.1685  -42.0870 C   0  0  0  0  0  0  0  0  0  0  0  0
  -36.6793    5.2476  -42.6202 C   0  0  0  0  0  0  0  0  0  0  0  0
  -36.9723    4.0087  -43.4695 C   0  0  0  0  0  0  0  0  0  0  0  0
  -36.0191    3.9414  -44.5845 N   0  0  0  0  0  0  0  0  0  0  0  0
  -34.6396    3.8164  -44.0970 C   0  0  0  0  0  0  0  0  0  0  0  0
  -36.4111    2.6622  -45.6494 X   0  0  0  0  0  0  0  0  0  0  0  0
  1  2  1  0  0  0  0
  2  3  1  0  0  0  0
  2  4  1  0  0  0  0
  4  5  1  0  0  0  0
  5  6  1  0  0  0  0
  5 10  1  0  0  0  0
  6  7  1  0  0  0  0
  7  8  1  0  0  0  0
  8  9  1  0  0  0  0
  9 10  1  0  0  0  0
  9 11  1  0  0  0  0
M  END
> <Index>
16405

> <PropertyFieldDistance>
nan

$$$$
10965662
BBcorina  12272117083D 1   1.00000     0.00000 
CORINA 4.3.0 0026  30.10.2019
 11 11  0  0  0  0  0  0  0  0999 V2000
  -36.2191    1.9409  -46.0311 C   0  0  0  0  0  0  0  0  0  0  0  0
  -36.2796    2.1009  -44.5107 C   0  0  0  0  0  0  0  0  0  0  0  0
  -35.9601    3.4850  -44.1524 N   0  0  0  0  0  0  0  0  0  0  0  0
  -36.9591    4.4040  -44.0633 C   0  0  0  0  0  0  0  0  0  0  0  0
  -36.6912    5.6891  -43.7395 C   0  0  0  0  0  0  0  0  0  0  0  0
  -35.3716    6.0874  -43.4799 C   0  0  0  0  0  0  0  0  0  0  0  0
  -34.3655    5.1653  -43.5692 C   0  0  0  0  0  0  0  0  0  0  0  0
  -33.0387    5.5376  -43.3201 N   0  0  0  0  0  0  0  0  0  0  0  0
  -34.6809    3.8329  -43.9152 C   0  0  0  0  0  0  0  0  0  0  0  0
  -33.7949    2.9974  -43.9996 O   0  0  0  0  0  0  0  0  0  0  0  0
  -32.6683    7.1539  -42.9020 X   0  0  0  0  0  0  0  0  0  0  0  0
  1  2  1  0  0  0  0
  2  3  1  0  0  0  0
  3  4  1  0  0  0  0
  3  9  1  0  0  0  0
  4  5  2  0  0  0  0
  5  6  1  0  0  0  0
  6  7  2  0  0  0  0
  7  8  1  0  0  0  0
  7  9  1  0  0  0  0
  8 11  1  0  0  0  0
  9 10  2  0  0  0  0
M  END
> <Index>
16408

> <PropertyFieldDistance>
nan

$$$$
16922872
BBcorina  12272117083D 1   1.00000     0.00000 
CORINA 4.3.0 0026  30.10.2019
 11 12  0  0  0  0  0  0  0  0999 V2000
  -36.0636    3.5306  -44.4150 N   0  0  0  0  0  0  0  0  0  0  0  0
  -36.9962    4.5492  -43.8663 C   0  0  0  0  0  0  0  0  0  0  0  0
  -36.4711    4.8304  -42.4409 C   0  0  0  0  0  0  0  0  0  0  0  0
  -34.9834    4.4404  -42.4831 C   0  0  0  0  0  0  0  0  0  0  0  0
  -34.7267    3.9530  -43.9207 C   0  0  0  0  0  0  0  0  0  0  0  0
  -34.1135    5.6549  -42.1776 C   0  0  0  0  0  0  0  0  0  0  0  0
  -34.3949    6.1401  -40.7531 C   0  0  0  0  0  0  0  0  0  0  0  0
  -34.0929    5.0134  -39.7631 C   0  0  0  0  0  0  0  0  0  0  0  0
  -34.9863    3.8096  -40.0690 C   0  0  0  0  0  0  0  0  0  0  0  0
  -34.7071    3.3161  -41.4906 C   0  0  0  0  0  0  0  0  0  0  0  0
  -36.1085    3.5163  -46.1244 X   0  0  0  0  0  0  0  0  0  0  0  0
  1  2  1  0  0  0  0
  1  5  1  0  0  0  0
  1 11  1  0  0  0  0
  2  3  1  0  0  0  0
  3  4  1  0  0  0  0
  4  5  1  0  0  0  0
  4  6  1  0  0  0  0
  4 10  1  0  0  0  0
  6  7  1  0  0  0  0
  7  8  1  0  0  0  0
  8  9  1  0  0  0  0
  9 10  1  0  0  0  0
M  END
> <Index>
16429

> <PropertyFieldDistance>
nan

$$$$
10118878
BBcorina  12272117083D 1   1.00000     0.00000 
CORINA 4.3.0 0026  30.10.2019
  8  8  0  0  0  0  0  0  0  0999 V2000
  -37.5657    5.3164  -41.4221 C   0  0  0  0  0  0  0  0  0  0  0  0
  -36.6293    5.2502  -42.6303 C   0  0  0  0  0  0  0  0  0  0  0  0
  -36.9723    4.0211  -43.4763 C   0  0  0  0  0  0  0  0  0  0  0  0
  -36.0215    3.9203  -44.5930 N   0  0  0  0  0  0  0  0  0  0  0  0
  -34.6419    3.8204  -44.0951 C   0  0  0  0  0  0  0  0  0  0  0  0
  -34.3222    5.0515  -43.2429 C   0  0  0  0  0  0  0  0  0  0  0  0
  -35.2751    5.1506  -42.1812 O   0  0  0  0  0  0  0  0  0  0  0  0
  -36.4046    2.5974  -45.6065 X   0  0  0  0  0  0  0  0  0  0  0  0
  1  2  1  0  0  0  0
  2  3  1  0  0  0  0
  2  7  1  0  0  0  0
  3  4  1  0  0  0  0
  4  5  1  0  0  0  0
  4  8  1  0  0  0  0
  5  6  1  0  0  0  0
  6  7  1  0  0  0  0
M  END
> <Index>
16432

> <PropertyFieldDistance>
nan

$$$$
13428530
BBcorina  12272117083D 1   1.00000     0.00000 
CORINA 4.3.0 0026  30.10.2019
  7  7  0  0  0  0  0  0  0  0999 V2000
  -39.1157    3.6148  -45.0038 O   0  0  0  0  0  0  0  0  0  0  0  0
  -38.4731    3.7108  -43.7311 C   0  0  0  0  0  0  0  0  0  0  0  0
  -37.1869    4.5279  -43.8695 C   0  0  0  0  0  0  0  0  0  0  0  0
  -36.4760    4.7969  -42.5309 C   0  0  0  0  0  0  0  0  0  0  0  0
  -35.1655    4.4910  -43.2783 C   0  0  0  0  0  0  0  0  0  0  0  0
  -36.0008    3.7170  -44.2231 N   0  0  0  0  0  0  0  0  0  0  0  0
  -35.5228    4.0032  -45.8398 X   0  0  0  0  0  0  0  0  0  0  0  0
  1  2  1  0  0  0  0
  2  3  1  0  0  0  0
  3  4  1  0  0  0  0
  3  6  1  0  0  0  0
  4  5  1  0  0  0  0
  5  6  1  0  0  0  0
  6  7  1  0  0  0  0
M  END
> <Index>
16437

> <PropertyFieldDistance>
nan

$$$$
8305014
BBcorina  12272117083D 1   1.00000     0.00000 
CORINA 4.3.0 0026  30.10.2019
  9  9  0  0  0  0  0  0  0  0999 V2000
  -35.2726    1.6060  -41.7740 N   0  0  0  0  0  0  0  0  0  0  0  0
  -35.7203    2.4202  -42.9118 C   0  0  0  0  0  0  0  0  0  0  0  0
  -35.0233    1.9352  -44.1990 C   0  0  0  0  0  0  0  0  0  0  0  0
  -35.7077    2.4083  -45.4022 C   0  0  0  0  0  0  0  0  0  0  0  0
  -35.7264    3.9466  -45.4947 C   0  0  0  0  0  0  0  0  0  0  0  0
  -36.7428    4.4354  -44.6598 O   0  0  0  0  0  0  0  0  0  0  0  0
  -36.3507    4.8343  -43.3330 C   0  0  0  0  0  0  0  0  0  0  0  0
  -35.3586    3.8630  -42.6709 C   0  0  0  0  0  0  0  0  0  0  0  0
  -33.5806    1.7298  -41.5601 X   0  0  0  0  0  0  0  0  0  0  0  0
  1  2  1  0  0  0  0
  1  9  1  0  0  0  0
  2  3  1  0  0  0  0
  2  8  1  0  0  0  0
  3  4  1  0  0  0  0
  4  5  1  0  0  0  0
  5  6  1  0  0  0  0
  6  7  1  0  0  0  0
  7  8  1  0  0  0  0
M  END
> <Index>
16446

> <PropertyFieldDistance>
nan

$$$$
10738620
BBcorina  12272117083D 1   1.00000     0.00000 
CORINA 4.3.0 0026  30.10.2019
 10 11  0  0  0  0  0  0  0  0999 V2000
  -37.2076    2.1878  -44.6355 C   0  0  0  0  0  0  0  0  0  0  0  0
  -36.1060    3.1531  -44.6673 N   0  0  0  0  0  0  0  0  0  0  0  0
  -35.0664    3.1863  -45.6055 N   0  0  0  0  0  0  0  0  0  0  0  0
  -34.2787    4.1876  -45.3077 C   0  0  0  0  0  0  0  0  0  0  0  0
  -34.7901    4.8240  -44.1721 C   0  0  0  0  0  0  0  0  0  0  0  0
  -34.5546    5.9672  -43.2114 C   0  0  0  0  0  0  0  0  0  0  0  0
  -35.3838    5.6636  -42.0197 N   0  0  0  0  0  0  0  0  0  0  0  0
  -36.4845    4.8400  -42.5709 C   0  0  0  0  0  0  0  0  0  0  0  0
  -35.9145    4.1674  -43.7986 C   0  0  0  0  0  0  0  0  0  0  0  0
  -34.4876    4.7889  -40.8554 X   0  0  0  0  0  0  0  0  0  0  0  0
  1  2  1  0  0  0  0
  2  3  1  0  0  0  0
  2  9  1  0  0  0  0
  3  4  2  0  0  0  0
  4  5  1  0  0  0  0
  5  6  1  0  0  0  0
  5  9  2  0  0  0  0
  6  7  1  0  0  0  0
  7  8  1  0  0  0  0
  7 10  1  0  0  0  0
  8  9  1  0  0  0  0
M  END
> <Index>
16447

> <PropertyFieldDistance>
nan

$$$$
17039372
BBcorina  12272117083D 1   1.00000     0.00000 
CORINA 4.3.0 0026  30.10.2019
  9 10  0  0  0  0  0  0  0  0999 V2000
  -38.6832    4.1356  -45.4996 F   0  0  0  0  0  0  0  0  0  0  0  0
  -38.4768    4.4527  -44.1528 C   0  0  0  0  0  0  0  0  0  0  0  0
  -36.9761    4.5780  -43.8825 C   0  0  0  0  0  0  0  0  0  0  0  0
  -36.4669    4.8102  -42.4383 C   0  0  0  0  0  0  0  0  0  0  0  0
  -35.1989    5.2901  -43.1923 C   0  0  0  0  0  0  0  0  0  0  0  0
  -36.2757    5.9501  -44.1078 C   0  0  0  0  0  0  0  0  0  0  0  0
  -36.0729    3.4960  -44.4026 N   0  0  0  0  0  0  0  0  0  0  0  0
  -34.7419    3.9790  -43.9196 C   0  0  0  0  0  0  0  0  0  0  0  0
  -36.1174    3.4291  -46.1108 X   0  0  0  0  0  0  0  0  0  0  0  0
  1  2  1  0  0  0  0
  2  3  1  0  0  0  0
  3  4  1  0  0  0  0
  3  6  1  0  0  0  0
  3  7  1  0  0  0  0
  4  5  1  0  0  0  0
  5  6  1  0  0  0  0
  5  8  1  0  0  0  0
  7  8  1  0  0  0  0
  7  9  1  0  0  0  0
M  END
> <Index>
16480

> <PropertyFieldDistance>
nan

$$$$
12221206
BBcorina  12272117083D 1   1.00000     0.00000 
CORINA 4.3.0 0026  30.10.2019
 14 15  0  0  0  0  0  0  0  0999 V2000
  -36.4191    2.2280  -44.9490 C   0  0  0  0  0  0  0  0  0  0  0  0
  -36.2708    3.5964  -44.4475 N   0  0  0  0  0  0  0  0  0  0  0  0
  -36.7313    3.9412  -43.2283 C   0  0  0  0  0  0  0  0  0  0  0  0
  -37.2096    3.0979  -42.4997 O   0  0  0  0  0  0  0  0  0  0  0  0
  -36.6517    5.3710  -42.7723 C   0  0  0  0  0  0  0  0  0  0  0  0
  -35.3004    5.6945  -42.3017 N   0  0  0  0  0  0  0  0  0  0  0  0
  -34.2778    5.1481  -43.2046 C   0  0  0  0  0  0  0  0  0  0  0  0
  -34.6690    5.3802  -44.6389 C   0  0  0  0  0  0  0  0  0  0  0  0
  -34.0625    6.3757  -45.3785 C   0  0  0  0  0  0  0  0  0  0  0  0
  -34.4248    6.5727  -46.6991 C   0  0  0  0  0  0  0  0  0  0  0  0
  -35.3919    5.7756  -47.2831 C   0  0  0  0  0  0  0  0  0  0  0  0
  -36.0054    4.7794  -46.5465 C   0  0  0  0  0  0  0  0  0  0  0  0
  -35.6458    4.5848  -45.2226 C   0  0  0  0  0  0  0  0  0  0  0  0
  -35.0611    5.1444  -40.7004 X   0  0  0  0  0  0  0  0  0  0  0  0
  1  2  1  0  0  0  0
  2  3  1  0  0  0  0
  2 13  1  0  0  0  0
  3  4  2  0  0  0  0
  3  5  1  0  0  0  0
  5  6  1  0  0  0  0
  6  7  1  0  0  0  0
  6 14  1  0  0  0  0
  7  8  1  0  0  0  0
  8  9  2  0  0  0  0
  8 13  1  0  0  0  0
  9 10  1  0  0  0  0
 10 11  2  0  0  0  0
 11 12  1  0  0  0  0
 12 13  2  0  0  0  0
M  END
> <Index>
16485

> <PropertyFieldDistance>
nan

$$$$
12155488
BBcorina  12272117083D 1   1.00000     0.00000 
CORINA 4.3.0 0026  30.10.2019
 11 11  0  0  0  0  0  0  0  0999 V2000
  -37.9686    3.3790  -42.5875 C   0  0  0  0  0  0  0  0  0  0  0  0
  -37.1024    4.2298  -43.5185 C   0  0  0  0  0  0  0  0  0  0  0  0
  -36.0685    3.4027  -44.1642 N   0  0  0  0  0  0  0  0  0  0  0  0
  -36.2910    2.2621  -45.0563 C   0  0  0  0  0  0  0  0  0  0  0  0
  -34.8802    3.8988  -43.7749 C   0  0  0  0  0  0  0  0  0  0  0  0
  -33.8098    3.4450  -44.1291 O   0  0  0  0  0  0  0  0  0  0  0  0
  -35.0084    4.9479  -42.9544 N   0  0  0  0  0  0  0  0  0  0  0  0
  -33.9570    5.6347  -42.4169 N   0  0  0  0  0  0  0  0  0  0  0  0
  -36.3029    5.2438  -42.7245 C   0  0  0  0  0  0  0  0  0  0  0  0
  -36.7377    6.1351  -42.0271 O   0  0  0  0  0  0  0  0  0  0  0  0
  -33.4865    4.9599  -40.9178 X   0  0  0  0  0  0  0  0  0  0  0  0
  1  2  1  0  0  0  0
  2  3  1  0  0  0  0
  2  9  1  0  0  0  0
  3  4  1  0  0  0  0
  3  5  1  0  0  0  0
  5  6  2  0  0  0  0
  5  7  1  0  0  0  0
  7  8  1  0  0  0  0
  7  9  1  0  0  0  0
  8 11  1  0  0  0  0
  9 10  2  0  0  0  0
M  END
> <Index>
16487

> <PropertyFieldDistance>
nan

$$$$
16794030
BBcorina  12272117083D 1   1.00000     0.00000 
CORINA 4.3.0 0026  30.10.2019
 12 13  0  0  0  0  0  0  0  0999 V2000
  -36.3343    2.3060  -44.8749 C   0  0  0  0  0  0  0  0  0  0  0  0
  -35.9450    3.3445  -43.9116 N   0  0  0  0  0  0  0  0  0  0  0  0
  -37.0448    4.2911  -43.6852 C   0  0  0  0  0  0  0  0  0  0  0  0
  -36.6605    5.2605  -42.5637 C   0  0  0  0  0  0  0  0  0  0  0  0
  -35.3795    5.9946  -42.9484 C   0  0  0  0  0  0  0  0  0  0  0  0
  -34.9524    6.9467  -41.8187 C   0  0  0  0  0  0  0  0  0  0  0  0
  -34.9778    8.3543  -42.4551 C   0  0  0  0  0  0  0  0  0  0  0  0
  -35.9220    8.2330  -43.5961 N   0  0  0  0  0  0  0  0  0  0  0  0
  -35.6315    6.8937  -44.1721 C   0  0  0  0  0  0  0  0  0  0  0  0
  -34.2639    4.9983  -43.2494 C   0  0  0  0  0  0  0  0  0  0  0  0
  -34.7261    4.0372  -44.3484 C   0  0  0  0  0  0  0  0  0  0  0  0
  -35.6526    9.4673  -44.7485 X   0  0  0  0  0  0  0  0  0  0  0  0
  1  2  1  0  0  0  0
  2  3  1  0  0  0  0
  2 11  1  0  0  0  0
  3  4  1  0  0  0  0
  4  5  1  0  0  0  0
  5  6  1  0  0  0  0
  5  9  1  0  0  0  0
  5 10  1  0  0  0  0
  6  7  1  0  0  0  0
  7  8  1  0  0  0  0
  8  9  1  0  0  0  0
  8 12  1  0  0  0  0
 10 11  1  0  0  0  0
M  END
> <Index>
16516

> <PropertyFieldDistance>
nan

$$$$
9162512
BBcorina  12272117083D 1   1.00000     0.00000 
CORINA 4.3.0 0026  30.10.2019
 10 10  0  0  0  0  0  0  0  0999 V2000
  -34.8293    2.2923  -46.0018 C   0  0  0  0  0  0  0  0  0  0  0  0
  -35.5454    2.7857  -44.7430 C   0  0  0  0  0  0  0  0  0  0  0  0
  -36.9808    2.2562  -44.7321 C   0  0  0  0  0  0  0  0  0  0  0  0
  -35.5662    4.3156  -44.7346 C   0  0  0  0  0  0  0  0  0  0  0  0
  -36.2823    4.8090  -43.4758 C   0  0  0  0  0  0  0  0  0  0  0  0
  -35.5423    4.3022  -42.2362 C   0  0  0  0  0  0  0  0  0  0  0  0
  -35.5216    2.7723  -42.2447 C   0  0  0  0  0  0  0  0  0  0  0  0
  -34.8055    2.2789  -43.5035 C   0  0  0  0  0  0  0  0  0  0  0  0
  -34.8111    2.2857  -41.0545 N   0  0  0  0  0  0  0  0  0  0  0  0
  -33.1991    2.8558  -41.0274 X   0  0  0  0  0  0  0  0  0  0  0  0
  1  2  1  0  0  0  0
  2  3  1  0  0  0  0
  2  4  1  0  0  0  0
  2  8  1  0  0  0  0
  4  5  1  0  0  0  0
  5  6  1  0  0  0  0
  6  7  1  0  0  0  0
  7  8  1  0  0  0  0
  7  9  1  0  0  0  0
  9 10  1  0  0  0  0
M  END
> <Index>
16518

> <PropertyFieldDistance>
nan

$$$$
7933070
BBcorina  12272117083D 1   1.00000     0.00000 
CORINA 4.3.0 0026  30.10.2019
 10 10  0  0  0  0  0  0  0  0999 V2000
  -31.9197    6.2657  -41.5842 N   0  0  0  0  0  0  0  0  0  0  0  0
  -32.8159    5.2725  -41.7477 C   0  0  0  0  0  0  0  0  0  0  0  0
  -32.5359    4.1391  -41.4078 O   0  0  0  0  0  0  0  0  0  0  0  0
  -34.0223    5.5354  -42.2880 N   0  0  0  0  0  0  0  0  0  0  0  0
  -34.9963    4.4557  -42.4657 C   0  0  0  0  0  0  0  0  0  0  0  0
  -36.4271    5.0338  -42.5595 C   0  0  0  0  0  0  0  0  0  0  0  0
  -37.0854    4.1536  -43.6516 C   0  0  0  0  0  0  0  0  0  0  0  0
  -35.9828    3.9350  -44.6224 N   0  0  0  0  0  0  0  0  0  0  0  0
  -34.7625    3.7407  -43.8095 C   0  0  0  0  0  0  0  0  0  0  0  0
  -36.2908    2.5675  -45.6018 X   0  0  0  0  0  0  0  0  0  0  0  0
  1  2  1  0  0  0  0
  2  3  2  0  0  0  0
  2  4  1  0  0  0  0
  4  5  1  0  0  0  0
  5  6  1  0  0  0  0
  5  9  1  0  0  0  0
  6  7  1  0  0  0  0
  7  8  1  0  0  0  0
  8  9  1  0  0  0  0
  8 10  1  0  0  0  0
M  END
> <Index>
16525

> <PropertyFieldDistance>
nan

$$$$
7874330
BBcorina  12272117083D 1   1.00000     0.00000 
CORINA 4.3.0 0026  30.10.2019
 11 11  0  0  0  0  0  0  0  0999 V2000
  -36.4010    7.0282  -40.7064 C   0  0  0  0  0  0  0  0  0  0  0  0
  -35.1156    6.6807  -41.4598 C   0  0  0  0  0  0  0  0  0  0  0  0
  -34.0651    6.1738  -40.4697 C   0  0  0  0  0  0  0  0  0  0  0  0
  -34.5871    7.9288  -42.1696 C   0  0  0  0  0  0  0  0  0  0  0  0
  -35.4047    5.6082  -42.4783 C   0  0  0  0  0  0  0  0  0  0  0  0
  -36.6171    5.1544  -42.5744 C   0  0  0  0  0  0  0  0  0  0  0  0
  -37.0213    4.0825  -43.5450 C   0  0  0  0  0  0  0  0  0  0  0  0
  -36.0031    3.9347  -44.5928 N   0  0  0  0  0  0  0  0  0  0  0  0
  -34.6695    3.7815  -43.9877 C   0  0  0  0  0  0  0  0  0  0  0  0
  -34.2763    5.1106  -43.3377 C   0  0  0  0  0  0  0  0  0  0  0  0
  -36.0381    5.2601  -45.6726 X   0  0  0  0  0  0  0  0  0  0  0  0
  1  2  1  0  0  0  0
  2  3  1  0  0  0  0
  2  4  1  0  0  0  0
  2  5  1  0  0  0  0
  5  6  2  0  0  0  0
  5 10  1  0  0  0  0
  6  7  1  0  0  0  0
  7  8  1  0  0  0  0
  8  9  1  0  0  0  0
  8 11  1  0  0  0  0
  9 10  1  0  0  0  0
M  END
> <Index>
16530

> <PropertyFieldDistance>
nan

$$$$
9279776
BBcorina  12272117083D 1   1.00000     0.00000 
CORINA 4.3.0 0026  30.10.2019
 12 13  0  0  0  0  0  0  0  0999 V2000
  -34.6750    0.4380  -45.1819 N   0  0  0  0  0  0  0  0  0  0  0  0
  -35.0981    0.8504  -46.5447 C   0  0  0  0  0  0  0  0  0  0  0  0
  -35.6112    2.2971  -46.3340 C   0  0  0  0  0  0  0  0  0  0  0  0
  -36.3098    2.2191  -44.9571 C   0  0  0  0  0  0  0  0  0  0  0  0
  -35.6879    0.9953  -44.2594 C   0  0  0  0  0  0  0  0  0  0  0  0
  -36.0453    3.4346  -44.1832 N   0  0  0  0  0  0  0  0  0  0  0  0
  -37.0873    4.3214  -43.6523 C   0  0  0  0  0  0  0  0  0  0  0  0
  -36.3857    5.1782  -42.5727 C   0  0  0  0  0  0  0  0  0  0  0  0
  -34.9183    5.1553  -43.0595 C   0  0  0  0  0  0  0  0  0  0  0  0
  -34.8170    3.8839  -43.8729 C   0  0  0  0  0  0  0  0  0  0  0  0
  -33.7786    3.3482  -44.1982 O   0  0  0  0  0  0  0  0  0  0  0  0
  -34.5997   -1.2654  -45.0528 X   0  0  0  0  0  0  0  0  0  0  0  0
  1  2  1  0  0  0  0
  1  5  1  0  0  0  0
  1 12  1  0  0  0  0
  2  3  1  0  0  0  0
  3  4  1  0  0  0  0
  4  5  1  0  0  0  0
  4  6  1  0  0  0  0
  6  7  1  0  0  0  0
  6 10  1  0  0  0  0
  7  8  1  0  0  0  0
  8  9  1  0  0  0  0
  9 10  1  0  0  0  0
 10 11  2  0  0  0  0
M  END
> <Index>
16533

> <PropertyFieldDistance>
nan

$$$$
7108934
BBcorina  12272117083D 1   1.00000     0.00000 
CORINA 4.3.0 0026  30.10.2019
 14 15  0  0  0  0  0  0  0  0999 V2000
  -36.3307    2.2163  -44.7672 C   0  0  0  0  0  0  0  0  0  0  0  0
  -35.9773    3.5200  -44.1998 N   0  0  0  0  0  0  0  0  0  0  0  0
  -37.0365    4.4111  -43.7316 C   0  0  0  0  0  0  0  0  0  0  0  0
  -36.6334    5.1040  -42.4325 C   0  0  0  0  0  0  0  0  0  0  0  0
  -35.2713    5.7297  -42.5800 C   0  0  0  0  0  0  0  0  0  0  0  0
  -34.9626    6.9021  -41.9234 C   0  0  0  0  0  0  0  0  0  0  0  0
  -33.7038    7.4598  -42.0555 C   0  0  0  0  0  0  0  0  0  0  0  0
  -32.7424    6.8434  -42.8476 C   0  0  0  0  0  0  0  0  0  0  0  0
  -31.4711    7.4095  -42.9707 N   0  0  0  0  0  0  0  0  0  0  0  0
  -33.0455    5.6658  -43.5168 C   0  0  0  0  0  0  0  0  0  0  0  0
  -34.3154    5.1107  -43.3888 C   0  0  0  0  0  0  0  0  0  0  0  0
  -34.6814    3.8756  -44.1132 C   0  0  0  0  0  0  0  0  0  0  0  0
  -33.8207    3.1896  -44.6291 O   0  0  0  0  0  0  0  0  0  0  0  0
  -31.0980    8.8606  -42.1467 X   0  0  0  0  0  0  0  0  0  0  0  0
  1  2  1  0  0  0  0
  2  3  1  0  0  0  0
  2 12  1  0  0  0  0
  3  4  1  0  0  0  0
  4  5  1  0  0  0  0
  5  6  2  0  0  0  0
  5 11  1  0  0  0  0
  6  7  1  0  0  0  0
  7  8  2  0  0  0  0
  8  9  1  0  0  0  0
  8 10  1  0  0  0  0
  9 14  1  0  0  0  0
 10 11  2  0  0  0  0
 11 12  1  0  0  0  0
 12 13  2  0  0  0  0
M  END
> <Index>
16540

> <PropertyFieldDistance>
nan

$$$$
13765574
BBcorina  12272117083D 1   1.00000     0.00000 
CORINA 4.3.0 0026  30.10.2019
 10 10  0  0  0  0  0  0  0  0999 V2000
  -36.1059    1.6538  -45.9847 C   0  0  0  0  0  0  0  0  0  0  0  0
  -36.3934    2.1751  -44.5752 C   0  0  0  0  0  0  0  0  0  0  0  0
  -36.0172    3.5927  -44.4913 N   0  0  0  0  0  0  0  0  0  0  0  0
  -37.8850    2.0243  -44.2699 C   0  0  0  0  0  0  0  0  0  0  0  0
  -38.1745    2.5457  -42.8590 C   0  0  0  0  0  0  0  0  0  0  0  0
  -39.6530    2.3186  -42.5330 C   0  0  0  0  0  0  0  0  0  0  0  0
  -39.9575    0.9276  -42.6525 O   0  0  0  0  0  0  0  0  0  0  0  0
  -39.7510    0.3955  -43.9627 C   0  0  0  0  0  0  0  0  0  0  0  0
  -38.2765    0.5454  -44.3461 C   0  0  0  0  0  0  0  0  0  0  0  0
  -34.3881    3.7665  -44.0017 X   0  0  0  0  0  0  0  0  0  0  0  0
  1  2  1  0  0  0  0
  2  3  1  0  0  0  0
  2  4  1  0  0  0  0
  3 10  1  0  0  0  0
  4  5  1  0  0  0  0
  4  9  1  0  0  0  0
  5  6  1  0  0  0  0
  6  7  1  0  0  0  0
  7  8  1  0  0  0  0
  8  9  1  0  0  0  0
M  END
> <Index>
16564

> <PropertyFieldDistance>
nan

$$$$
14787528
BBcorina  12272117083D 1   1.00000     0.00000 
CORINA 4.3.0 0026  30.10.2019
 11 11  0  0  0  0  0  0  0  0999 V2000
  -35.0120    5.6975  -42.4673 N   0  0  0  0  0  0  0  0  0  0  0  0
  -36.3414    5.3092  -41.9434 C   0  0  0  0  0  0  0  0  0  0  0  0
  -37.3853    5.1850  -43.0238 C   0  0  0  0  0  0  0  0  0  0  0  0
  -37.4347    3.7184  -43.5076 C   0  0  0  0  0  0  0  0  0  0  0  0
  -36.3486    3.4150  -44.3387 N   0  0  0  0  0  0  0  0  0  0  0  0
  -36.5053    2.0866  -44.9458 C   0  0  0  0  0  0  0  0  0  0  0  0
  -35.4577    1.8948  -46.0120 C   0  0  0  0  0  0  0  0  0  0  0  0
  -34.6571    0.8590  -45.9649 C   0  0  0  0  0  0  0  0  0  0  0  0
  -35.0262    3.5502  -43.6952 C   0  0  0  0  0  0  0  0  0  0  0  0
  -34.6404    5.0077  -43.7198 C   0  0  0  0  0  0  0  0  0  0  0  0
  -34.8948    7.3943  -42.6442 X   0  0  0  0  0  0  0  0  0  0  0  0
  1  2  1  0  0  0  0
  1 10  1  0  0  0  0
  1 11  1  0  0  0  0
  2  3  1  0  0  0  0
  3  4  1  0  0  0  0
  4  5  1  0  0  0  0
  5  6  1  0  0  0  0
  5  9  1  0  0  0  0
  6  7  1  0  0  0  0
  7  8  2  0  0  0  0
  9 10  1  0  0  0  0
M  END
> <Index>
16579

> <PropertyFieldDistance>
nan

$$$$
10709810
BBcorina  12272117083D 1   1.00000     0.00000 
CORINA 4.3.0 0026  30.10.2019
 13 13  0  0  0  0  0  0  0  0999 V2000
  -37.2673    3.3939  -40.2257 C   0  0  0  0  0  0  0  0  0  0  0  0
  -35.9395    4.1242  -40.0150 C   0  0  0  0  0  0  0  0  0  0  0  0
  -35.2053    3.5129  -38.8198 C   0  0  0  0  0  0  0  0  0  0  0  0
  -35.1101    3.9896  -41.2199 N   0  0  0  0  0  0  0  0  0  0  0  0
  -35.2462    5.1676  -42.0869 C   0  0  0  0  0  0  0  0  0  0  0  0
  -34.9268    6.4323  -41.2873 C   0  0  0  0  0  0  0  0  0  0  0  0
  -33.6439    6.2962  -40.6731 O   0  0  0  0  0  0  0  0  0  0  0  0
  -36.6793    5.2476  -42.6202 C   0  0  0  0  0  0  0  0  0  0  0  0
  -36.9723    4.0086  -43.4695 C   0  0  0  0  0  0  0  0  0  0  0  0
  -36.0191    3.9414  -44.5845 N   0  0  0  0  0  0  0  0  0  0  0  0
  -34.6396    3.8164  -44.0971 C   0  0  0  0  0  0  0  0  0  0  0  0
  -34.2769    5.0496  -43.2665 C   0  0  0  0  0  0  0  0  0  0  0  0
  -36.4111    2.6621  -45.6495 X   0  0  0  0  0  0  0  0  0  0  0  0
  1  2  1  0  0  0  0
  2  3  1  0  0  0  0
  2  4  1  0  0  0  0
  4  5  1  0  0  0  0
  5  6  1  0  0  0  0
  5  8  1  0  0  0  0
  5 12  1  0  0  0  0
  6  7  1  0  0  0  0
  8  9  1  0  0  0  0
  9 10  1  0  0  0  0
 10 11  1  0  0  0  0
 10 13  1  0  0  0  0
 11 12  1  0  0  0  0
M  END
> <Index>
16601

> <PropertyFieldDistance>
nan

$$$$
10719320
BBcorina  12272117083D 1   1.00000     0.00000 
CORINA 4.3.0 0026  30.10.2019
  8  8  0  0  0  0  0  0  0  0999 V2000
  -36.9720    6.1791  -42.1703 F   0  0  0  0  0  0  0  0  0  0  0  0
  -36.4170    4.9364  -42.4940 C   0  0  0  0  0  0  0  0  0  0  0  0
  -37.0825    4.3543  -43.7587 C   0  0  0  0  0  0  0  0  0  0  0  0
  -36.0199    3.7159  -44.5571 N   0  0  0  0  0  0  0  0  0  0  0  0
  -34.7384    3.8564  -43.8332 C   0  0  0  0  0  0  0  0  0  0  0  0
  -34.9334    5.0924  -42.9200 C   0  0  0  0  0  0  0  0  0  0  0  0
  -34.7394    6.2793  -43.6349 F   0  0  0  0  0  0  0  0  0  0  0  0
  -36.3798    2.0705  -44.8522 X   0  0  0  0  0  0  0  0  0  0  0  0
  1  2  1  0  0  0  0
  2  3  1  0  0  0  0
  2  6  1  0  0  0  0
  3  4  1  0  0  0  0
  4  5  1  0  0  0  0
  4  8  1  0  0  0  0
  5  6  1  0  0  0  0
  6  7  1  0  0  0  0
M  END
> <Index>
16603

> <PropertyFieldDistance>
nan

$$$$
12056624
BBcorina  12272117083D 1   1.00000     0.00000 
CORINA 4.3.0 0026  30.10.2019
 10 11  0  0  0  0  0  0  0  0999 V2000
  -34.0918    6.0366  -42.8976 C   0  0  0  0  0  0  0  0  0  0  0  0
  -34.9093    4.7647  -42.6637 C   0  0  0  0  0  0  0  0  0  0  0  0
  -34.5631    4.0715  -41.3283 C   0  0  0  0  0  0  0  0  0  0  0  0
  -35.8052    3.4884  -40.8793 O   0  0  0  0  0  0  0  0  0  0  0  0
  -36.8161    4.4775  -41.1694 C   0  0  0  0  0  0  0  0  0  0  0  0
  -36.4357    5.0398  -42.5560 C   0  0  0  0  0  0  0  0  0  0  0  0
  -37.0743    4.1519  -43.6440 C   0  0  0  0  0  0  0  0  0  0  0  0
  -35.9907    3.9299  -44.6348 N   0  0  0  0  0  0  0  0  0  0  0  0
  -34.7569    3.7415  -43.8082 C   0  0  0  0  0  0  0  0  0  0  0  0
  -36.3073    2.5472  -45.5899 X   0  0  0  0  0  0  0  0  0  0  0  0
  1  2  1  0  0  0  0
  2  3  1  0  0  0  0
  2  6  1  0  0  0  0
  2  9  1  0  0  0  0
  3  4  1  0  0  0  0
  4  5  1  0  0  0  0
  5  6  1  0  0  0  0
  6  7  1  0  0  0  0
  7  8  1  0  0  0  0
  8  9  1  0  0  0  0
  8 10  1  0  0  0  0
M  END
> <Index>
16607

> <PropertyFieldDistance>
nan

$$$$
7967710
BBcorina  12272117083D 1   1.00000     0.00000 
CORINA 4.3.0 0026  30.10.2019
 12 12  0  0  0  0  0  0  0  0999 V2000
  -36.4419    3.1300  -46.8964 F   0  0  0  0  0  0  0  0  0  0  0  0
  -36.8145    2.1439  -45.9765 C   0  0  0  0  0  0  0  0  0  0  0  0
  -38.1153    2.3939  -45.5265 F   0  0  0  0  0  0  0  0  0  0  0  0
  -35.8509    2.1648  -44.7883 C   0  0  0  0  0  0  0  0  0  0  0  0
  -35.7944    3.5213  -44.2273 N   0  0  0  0  0  0  0  0  0  0  0  0
  -36.9288    3.7912  -43.4510 C   0  0  0  0  0  0  0  0  0  0  0  0
  -36.9823    5.2747  -43.0224 C   0  0  0  0  0  0  0  0  0  0  0  0
  -35.9920    5.4982  -41.9082 C   0  0  0  0  0  0  0  0  0  0  0  0
  -34.6665    5.9437  -42.3949 N   0  0  0  0  0  0  0  0  0  0  0  0
  -34.2056    5.2317  -43.6046 C   0  0  0  0  0  0  0  0  0  0  0  0
  -34.5091    3.7563  -43.5390 C   0  0  0  0  0  0  0  0  0  0  0  0
  -33.4965    5.8587  -41.1507 X   0  0  0  0  0  0  0  0  0  0  0  0
  1  2  1  0  0  0  0
  2  3  1  0  0  0  0
  2  4  1  0  0  0  0
  4  5  1  0  0  0  0
  5  6  1  0  0  0  0
  5 11  1  0  0  0  0
  6  7  1  0  0  0  0
  7  8  1  0  0  0  0
  8  9  1  0  0  0  0
  9 10  1  0  0  0  0
  9 12  1  0  0  0  0
 10 11  1  0  0  0  0
M  END
> <Index>
16612

> <PropertyFieldDistance>
nan

$$$$
7969028
BBcorina  12272117083D 1   1.00000     0.00000 
CORINA 4.3.0 0026  30.10.2019
  8  8  0  0  0  0  0  0  0  0999 V2000
  -34.0048    5.0286  -41.7057 C   0  0  0  0  0  0  0  0  0  0  0  0
  -34.9334    5.0924  -42.9200 C   0  0  0  0  0  0  0  0  0  0  0  0
  -34.7394    6.2793  -43.6349 F   0  0  0  0  0  0  0  0  0  0  0  0
  -36.4170    4.9364  -42.4940 C   0  0  0  0  0  0  0  0  0  0  0  0
  -37.0825    4.3543  -43.7587 C   0  0  0  0  0  0  0  0  0  0  0  0
  -36.0199    3.7159  -44.5571 N   0  0  0  0  0  0  0  0  0  0  0  0
  -34.7384    3.8564  -43.8332 C   0  0  0  0  0  0  0  0  0  0  0  0
  -36.3798    2.0705  -44.8522 X   0  0  0  0  0  0  0  0  0  0  0  0
  1  2  1  0  0  0  0
  2  3  1  0  0  0  0
  2  4  1  0  0  0  0
  2  7  1  0  0  0  0
  4  5  1  0  0  0  0
  5  6  1  0  0  0  0
  6  7  1  0  0  0  0
  6  8  1  0  0  0  0
M  END
> <Index>
16616

> <PropertyFieldDistance>
nan

$$$$
12122422
BBcorina  12272117083D 1   1.00000     0.00000 
CORINA 4.3.0 0026  30.10.2019
 11 12  0  0  0  0  0  0  0  0999 V2000
  -37.3707    3.8176  -42.4917 C   0  0  0  0  0  0  0  0  0  0  0  0
  -36.8010    4.5451  -43.7112 C   0  0  0  0  0  0  0  0  0  0  0  0
  -35.9899    3.6148  -44.5290 N   0  0  0  0  0  0  0  0  0  0  0  0
  -34.6194    3.7717  -43.9918 C   0  0  0  0  0  0  0  0  0  0  0  0
  -34.5558    5.1772  -43.4385 C   0  0  0  0  0  0  0  0  0  0  0  0
  -33.4881    5.9888  -43.1079 C   0  0  0  0  0  0  0  0  0  0  0  0
  -33.7126    7.2593  -42.6108 C   0  0  0  0  0  0  0  0  0  0  0  0
  -35.0058    7.7179  -42.4447 C   0  0  0  0  0  0  0  0  0  0  0  0
  -36.0750    6.9057  -42.7743 C   0  0  0  0  0  0  0  0  0  0  0  0
  -35.8516    5.6365  -43.2718 C   0  0  0  0  0  0  0  0  0  0  0  0
  -36.0520    4.0404  -46.1841 X   0  0  0  0  0  0  0  0  0  0  0  0
  1  2  1  0  0  0  0
  2  3  1  0  0  0  0
  2 10  1  0  0  0  0
  3  4  1  0  0  0  0
  3 11  1  0  0  0  0
  4  5  1  0  0  0  0
  5  6  2  0  0  0  0
  5 10  1  0  0  0  0
  6  7  1  0  0  0  0
  7  8  2  0  0  0  0
  8  9  1  0  0  0  0
  9 10  2  0  0  0  0
M  END
> <Index>
16627

> <PropertyFieldDistance>
nan

$$$$
11972716
BBcorina  12272117083D 1   1.00000     0.00000 
CORINA 4.3.0 0026  30.10.2019
  7  7  0  0  0  0  0  0  0  0999 V2000
  -34.8424    3.2163  -41.7657 N   0  0  0  0  0  0  0  0  0  0  0  0
  -35.7512    2.8357  -42.8554 C   0  0  0  0  0  0  0  0  0  0  0  0
  -34.9488    2.2981  -44.0630 C   0  0  0  0  0  0  0  0  0  0  0  0
  -35.7740    2.8486  -45.2492 C   0  0  0  0  0  0  0  0  0  0  0  0
  -36.4876    4.0584  -44.6921 C   0  0  0  0  0  0  0  0  0  0  0  0
  -36.4756    4.0514  -43.3869 C   0  0  0  0  0  0  0  0  0  0  0  0
  -33.8291    4.5107  -42.2367 X   0  0  0  0  0  0  0  0  0  0  0  0
  1  2  1  0  0  0  0
  1  7  1  0  0  0  0
  2  3  1  0  0  0  0
  2  6  1  0  0  0  0
  3  4  1  0  0  0  0
  4  5  1  0  0  0  0
  5  6  2  0  0  0  0
M  END
> <Index>
16642

> <PropertyFieldDistance>
nan

$$$$
12894000
BBcorina  12272117083D 1   1.00000     0.00000 
CORINA 4.3.0 0026  30.10.2019
  8  8  0  0  0  0  0  0  0  0999 V2000
  -36.0173    3.5927  -44.4913 N   0  0  0  0  0  0  0  0  0  0  0  0
  -36.3933    2.1751  -44.5752 C   0  0  0  0  0  0  0  0  0  0  0  0
  -36.1059    1.6538  -45.9847 C   0  0  0  0  0  0  0  0  0  0  0  0
  -36.4534    0.1503  -46.0842 C   0  0  0  0  0  0  0  0  0  0  0  0
  -37.0181    0.0613  -47.5210 C   0  0  0  0  0  0  0  0  0  0  0  0
  -37.5107    1.4565  -47.8272 C   0  0  0  0  0  0  0  0  0  0  0  0
  -37.0133    2.3250  -46.9893 C   0  0  0  0  0  0  0  0  0  0  0  0
  -36.3229    4.2163  -42.9287 X   0  0  0  0  0  0  0  0  0  0  0  0
  1  2  1  0  0  0  0
  1  8  1  0  0  0  0
  2  3  1  0  0  0  0
  3  4  1  0  0  0  0
  3  7  1  0  0  0  0
  4  5  1  0  0  0  0
  5  6  1  0  0  0  0
  6  7  2  0  0  0  0
M  END
> <Index>
16643

> <PropertyFieldDistance>
nan

$$$$
10975426
BBcorina  12272117083D 1   1.00000     0.00000 
CORINA 4.3.0 0026  30.10.2019
 10 10  0  0  0  0  0  0  0  0999 V2000
  -34.0999    6.0473  -43.1904 O   0  0  0  0  0  0  0  0  0  0  0  0
  -35.4114    5.4871  -43.2803 C   0  0  0  0  0  0  0  0  0  0  0  0
  -35.3091    3.9646  -43.3919 C   0  0  0  0  0  0  0  0  0  0  0  0
  -34.6200    3.5948  -44.7069 C   0  0  0  0  0  0  0  0  0  0  0  0
  -34.5177    2.0723  -44.8185 C   0  0  0  0  0  0  0  0  0  0  0  0
  -35.9210    1.4634  -44.7893 C   0  0  0  0  0  0  0  0  0  0  0  0
  -36.6102    1.8332  -43.4743 C   0  0  0  0  0  0  0  0  0  0  0  0
  -36.7124    3.3557  -43.3627 C   0  0  0  0  0  0  0  0  0  0  0  0
  -35.8263    1.3111  -42.3469 N   0  0  0  0  0  0  0  0  0  0  0  0
  -36.2247   -0.3208  -42.0271 X   0  0  0  0  0  0  0  0  0  0  0  0
  1  2  1  0  0  0  0
  2  3  1  0  0  0  0
  3  4  1  0  0  0  0
  3  8  1  0  0  0  0
  4  5  1  0  0  0  0
  5  6  1  0  0  0  0
  6  7  1  0  0  0  0
  7  8  1  0  0  0  0
  7  9  1  0  0  0  0
  9 10  1  0  0  0  0
M  END
> <Index>
16656

> <PropertyFieldDistance>
nan

$$$$
7025482
BBcorina  12272117083D 1   1.00000     0.00000 
CORINA 4.3.0 0026  30.10.2019
 12 13  0  0  0  0  0  0  0  0999 V2000
  -36.2044    2.9615  -45.1086 C   0  0  0  0  0  0  0  0  0  0  0  0
  -35.8819    3.3483  -43.7286 N   0  0  0  0  0  0  0  0  0  0  0  0
  -37.1031    3.7266  -42.9849 C   0  0  0  0  0  0  0  0  0  0  0  0
  -37.1420    5.2623  -43.1590 C   0  0  0  0  0  0  0  0  0  0  0  0
  -35.6848    5.6120  -43.3869 C   0  0  0  0  0  0  0  0  0  0  0  0
  -35.0080    4.4425  -43.7052 C   0  0  0  0  0  0  0  0  0  0  0  0
  -33.6353    4.4965  -43.9468 C   0  0  0  0  0  0  0  0  0  0  0  0
  -32.9619    5.6985  -43.8762 C   0  0  0  0  0  0  0  0  0  0  0  0
  -33.6400    6.8614  -43.5648 C   0  0  0  0  0  0  0  0  0  0  0  0
  -35.0073    6.8188  -43.3188 C   0  0  0  0  0  0  0  0  0  0  0  0
  -35.6977    7.9913  -43.0037 N   0  0  0  0  0  0  0  0  0  0  0  0
  -37.3799    7.9379  -42.7012 X   0  0  0  0  0  0  0  0  0  0  0  0
  1  2  1  0  0  0  0
  2  3  1  0  0  0  0
  2  6  1  0  0  0  0
  3  4  1  0  0  0  0
  4  5  1  0  0  0  0
  5  6  2  0  0  0  0
  5 10  1  0  0  0  0
  6  7  1  0  0  0  0
  7  8  2  0  0  0  0
  8  9  1  0  0  0  0
  9 10  2  0  0  0  0
 10 11  1  0  0  0  0
 11 12  1  0  0  0  0
M  END
> <Index>
16659

> <PropertyFieldDistance>
nan

$$$$
12910870
BBcorina  12272117083D 1   1.00000     0.00000 
CORINA 4.3.0 0026  30.10.2019
  9  9  0  0  0  0  0  0  0  0999 V2000
  -36.4190    2.0780  -45.9699 C   0  0  0  0  0  0  0  0  0  0  0  0
  -36.1535    2.1031  -44.4634 C   0  0  0  0  0  0  0  0  0  0  0  0
  -35.8725    3.4811  -44.0386 N   0  0  0  0  0  0  0  0  0  0  0  0
  -37.1055    4.2899  -44.0187 C   0  0  0  0  0  0  0  0  0  0  0  0
  -36.6114    4.9099  -42.7042 C   0  0  0  0  0  0  0  0  0  0  0  0
  -35.8466    3.5859  -42.5678 C   0  0  0  0  0  0  0  0  0  0  0  0
  -34.4383    3.7519  -41.9933 C   0  0  0  0  0  0  0  0  0  0  0  0
  -33.5844    2.6535  -42.4651 N   0  0  0  0  0  0  0  0  0  0  0  0
  -31.9977    2.8009  -41.8447 X   0  0  0  0  0  0  0  0  0  0  0  0
  1  2  1  0  0  0  0
  2  3  1  0  0  0  0
  3  4  1  0  0  0  0
  3  6  1  0  0  0  0
  4  5  1  0  0  0  0
  5  6  1  0  0  0  0
  6  7  1  0  0  0  0
  7  8  1  0  0  0  0
  8  9  1  0  0  0  0
M  END
> <Index>
16663

> <PropertyFieldDistance>
nan

$$$$
17313948
BBcorina  12272117083D 1   1.00000     0.00000 
CORINA 4.3.0 0026  30.10.2019
 10 10  0  0  0  0  0  0  0  0999 V2000
  -36.3176    2.3436  -46.0201 C   0  0  0  0  0  0  0  0  0  0  0  0
  -36.1637    1.9885  -44.5399 C   0  0  0  0  0  0  0  0  0  0  0  0
  -35.8755    3.2069  -43.7715 N   0  0  0  0  0  0  0  0  0  0  0  0
  -37.0207    4.1258  -43.7931 C   0  0  0  0  0  0  0  0  0  0  0  0
  -36.7415    5.3123  -42.8677 C   0  0  0  0  0  0  0  0  0  0  0  0
  -35.4758    6.0338  -43.3380 C   0  0  0  0  0  0  0  0  0  0  0  0
  -34.3086    5.0427  -43.3526 C   0  0  0  0  0  0  0  0  0  0  0  0
  -34.6580    3.8640  -44.2640 C   0  0  0  0  0  0  0  0  0  0  0  0
  -33.1022    5.7120  -43.8571 N   0  0  0  0  0  0  0  0  0  0  0  0
  -33.3460    6.3002  -45.4441 X   0  0  0  0  0  0  0  0  0  0  0  0
  1  2  1  0  0  0  0
  2  3  1  0  0  0  0
  3  4  1  0  0  0  0
  3  8  1  0  0  0  0
  4  5  1  0  0  0  0
  5  6  1  0  0  0  0
  6  7  1  0  0  0  0
  7  8  1  0  0  0  0
  7  9  1  0  0  0  0
  9 10  1  0  0  0  0
M  END
> <Index>
16672

> <PropertyFieldDistance>
nan

$$$$
16806250
BBcorina  12272117083D 1   1.00000     0.00000 
CORINA 4.3.0 0026  30.10.2019
 11 12  0  0  0  0  0  0  0  0999 V2000
  -36.0173    3.5927  -44.4913 N   0  0  0  0  0  0  0  0  0  0  0  0
  -36.3933    2.1751  -44.5752 C   0  0  0  0  0  0  0  0  0  0  0  0
  -36.1059    1.6538  -45.9847 C   0  0  0  0  0  0  0  0  0  0  0  0
  -36.3801    0.1471  -46.0383 C   0  0  0  0  0  0  0  0  0  0  0  0
  -36.2636   -0.3253  -47.4955 C   0  0  0  0  0  0  0  0  0  0  0  0
  -34.9381    0.2243  -48.0717 C   0  0  0  0  0  0  0  0  0  0  0  0
  -35.3293    1.5985  -48.6599 C   0  0  0  0  0  0  0  0  0  0  0  0
  -36.8435    1.7115  -48.3672 C   0  0  0  0  0  0  0  0  0  0  0  0
  -37.0132    2.3708  -46.9900 C   0  0  0  0  0  0  0  0  0  0  0  0
  -37.2951    0.3435  -48.2550 O   0  0  0  0  0  0  0  0  0  0  0  0
  -36.3230    4.2163  -42.9287 X   0  0  0  0  0  0  0  0  0  0  0  0
  1  2  1  0  0  0  0
  1 11  1  0  0  0  0
  2  3  1  0  0  0  0
  3  4  1  0  0  0  0
  3  9  1  0  0  0  0
  4  5  1  0  0  0  0
  5  6  1  0  0  0  0
  5 10  1  0  0  0  0
  6  7  1  0  0  0  0
  7  8  1  0  0  0  0
  8  9  1  0  0  0  0
  8 10  1  0  0  0  0
M  END
> <Index>
16674

> <PropertyFieldDistance>
nan

$$$$
14760730
BBcorina  12272117083D 1   1.00000     0.00000 
CORINA 4.3.0 0026  30.10.2019
 10 10  0  0  0  0  0  0  0  0999 V2000
  -37.2335    5.4139  -44.9133 C   0  0  0  0  0  0  0  0  0  0  0  0
  -37.0290    4.3869  -43.7978 C   0  0  0  0  0  0  0  0  0  0  0  0
  -36.6586    5.1099  -42.5007 C   0  0  0  0  0  0  0  0  0  0  0  0
  -35.3534    5.8832  -42.7079 C   0  0  0  0  0  0  0  0  0  0  0  0
  -34.2558    4.9088  -43.1443 C   0  0  0  0  0  0  0  0  0  0  0  0
  -34.6959    4.1916  -44.4226 C   0  0  0  0  0  0  0  0  0  0  0  0
  -33.6105    3.2021  -44.8514 C   0  0  0  0  0  0  0  0  0  0  0  0
  -35.9479    3.4664  -44.1723 N   0  0  0  0  0  0  0  0  0  0  0  0
  -34.9628    6.5331  -41.4498 N   0  0  0  0  0  0  0  0  0  0  0  0
  -34.6184    5.3729  -40.2418 X   0  0  0  0  0  0  0  0  0  0  0  0
  1  2  1  0  0  0  0
  2  3  1  0  0  0  0
  2  8  1  0  0  0  0
  3  4  1  0  0  0  0
  4  5  1  0  0  0  0
  4  9  1  0  0  0  0
  5  6  1  0  0  0  0
  6  7  1  0  0  0  0
  6  8  1  0  0  0  0
  9 10  1  0  0  0  0
M  END
> <Index>
16675

> <PropertyFieldDistance>
nan

$$$$
14043592
BBcorina  12272117083D 1   1.00000     0.00000 
CORINA 4.3.0 0026  30.10.2019
 10 10  0  0  0  0  0  0  0  0999 V2000
  -37.7370    5.2760  -44.7157 C   0  0  0  0  0  0  0  0  0  0  0  0
  -37.0858    4.3071  -43.7267 C   0  0  0  0  0  0  0  0  0  0  0  0
  -36.6105    5.0833  -42.4980 C   0  0  0  0  0  0  0  0  0  0  0  0
  -35.4241    5.9662  -42.9033 C   0  0  0  0  0  0  0  0  0  0  0  0
  -34.2412    5.0582  -43.2491 C   0  0  0  0  0  0  0  0  0  0  0  0
  -33.1847    5.8549  -43.8871 N   0  0  0  0  0  0  0  0  0  0  0  0
  -34.6863    3.9753  -44.1895 C   0  0  0  0  0  0  0  0  0  0  0  0
  -33.8386    3.3740  -44.8147 O   0  0  0  0  0  0  0  0  0  0  0  0
  -35.9635    3.6397  -44.3744 N   0  0  0  0  0  0  0  0  0  0  0  0
  -31.6399    5.2003  -43.5572 X   0  0  0  0  0  0  0  0  0  0  0  0
  1  2  1  0  0  0  0
  2  3  1  0  0  0  0
  2  9  1  0  0  0  0
  3  4  1  0  0  0  0
  4  5  1  0  0  0  0
  5  6  1  0  0  0  0
  5  7  1  0  0  0  0
  6 10  1  0  0  0  0
  7  8  2  0  0  0  0
  7  9  1  0  0  0  0
M  END
> <Index>
16677

> <PropertyFieldDistance>
nan

$$$$
9787016
BBcorina  12272117083D 1   1.00000     0.00000 
CORINA 4.3.0 0026  30.10.2019
 10 10  0  0  0  0  0  0  0  0999 V2000
  -35.0447    6.8854  -41.7406 C   0  0  0  0  0  0  0  0  0  0  0  0
  -35.4234    5.9661  -42.9035 C   0  0  0  0  0  0  0  0  0  0  0  0
  -36.6100    5.0833  -42.4985 C   0  0  0  0  0  0  0  0  0  0  0  0
  -37.0889    4.3074  -43.7262 C   0  0  0  0  0  0  0  0  0  0  0  0
  -35.9626    3.6396  -44.3746 N   0  0  0  0  0  0  0  0  0  0  0  0
  -34.6853    3.9751  -44.1895 C   0  0  0  0  0  0  0  0  0  0  0  0
  -33.8375    3.3738  -44.8144 O   0  0  0  0  0  0  0  0  0  0  0  0
  -34.2405    5.0581  -43.2489 C   0  0  0  0  0  0  0  0  0  0  0  0
  -33.7160    4.4508  -42.0184 N   0  0  0  0  0  0  0  0  0  0  0  0
  -34.7415    3.1979  -41.4682 X   0  0  0  0  0  0  0  0  0  0  0  0
  1  2  1  0  0  0  0
  2  3  1  0  0  0  0
  2  8  1  0  0  0  0
  3  4  1  0  0  0  0
  4  5  1  0  0  0  0
  5  6  1  0  0  0  0
  6  7  2  0  0  0  0
  6  8  1  0  0  0  0
  8  9  1  0  0  0  0
  9 10  1  0  0  0  0
M  END
> <Index>
16678

> <PropertyFieldDistance>
nan

$$$$
4567346
BBcorina  12272117083D 1   1.00000     0.00000 
CORINA 4.3.0 0026  30.10.2019
 13 13  0  0  0  0  0  0  0  0999 V2000
  -38.6333   -0.6574  -47.8835 C   0  0  0  0  0  0  0  0  0  0  0  0
  -38.3341   -0.0236  -46.5925 N   0  0  0  0  0  0  0  0  0  0  0  0
  -37.3011    1.0103  -46.7405 C   0  0  0  0  0  0  0  0  0  0  0  0
  -37.0171    1.6462  -45.3782 C   0  0  0  0  0  0  0  0  0  0  0  0
  -35.9412    2.7231  -45.5324 C   0  0  0  0  0  0  0  0  0  0  0  0
  -35.6686    3.3337  -44.2244 N   0  0  0  0  0  0  0  0  0  0  0  0
  -36.8381    4.0789  -43.7370 C   0  0  0  0  0  0  0  0  0  0  0  0
  -36.5414    4.6313  -42.3408 C   0  0  0  0  0  0  0  0  0  0  0  0
  -35.3556    5.4973  -42.4007 N   0  0  0  0  0  0  0  0  0  0  0  0
  -35.0829    6.1078  -41.0928 C   0  0  0  0  0  0  0  0  0  0  0  0
  -34.1867    4.7519  -42.8880 C   0  0  0  0  0  0  0  0  0  0  0  0
  -34.4828    4.1997  -44.2843 C   0  0  0  0  0  0  0  0  0  0  0  0
  -39.7501    0.6219  -45.8839 X   0  0  0  0  0  0  0  0  0  0  0  0
  1  2  1  0  0  0  0
  2  3  1  0  0  0  0
  2 13  1  0  0  0  0
  3  4  1  0  0  0  0
  4  5  1  0  0  0  0
  5  6  1  0  0  0  0
  6  7  1  0  0  0  0
  6 12  1  0  0  0  0
  7  8  1  0  0  0  0
  8  9  1  0  0  0  0
  9 10  1  0  0  0  0
  9 11  1  0  0  0  0
 11 12  1  0  0  0  0
M  END
> <Index>
16700

> <PropertyFieldDistance>
nan

$$$$
6951256
BBcorina  12272117083D 1   1.00000     0.00000 
CORINA 4.3.0 0026  30.10.2019
 13 14  0  0  0  0  0  0  0  0999 V2000
  -33.4926    6.3582  -40.7597 C   0  0  0  0  0  0  0  0  0  0  0  0
  -34.9269    6.4322  -41.2873 C   0  0  0  0  0  0  0  0  0  0  0  0
  -35.0717    7.5837  -42.1290 O   0  0  0  0  0  0  0  0  0  0  0  0
  -36.0741    8.4293  -41.5296 C   0  0  0  0  0  0  0  0  0  0  0  0
  -36.0813    7.9697  -40.0502 C   0  0  0  0  0  0  0  0  0  0  0  0
  -35.8394    6.5484  -40.1826 O   0  0  0  0  0  0  0  0  0  0  0  0
  -35.2462    5.1675  -42.0869 C   0  0  0  0  0  0  0  0  0  0  0  0
  -36.6793    5.2476  -42.6202 C   0  0  0  0  0  0  0  0  0  0  0  0
  -36.9724    4.0086  -43.4695 C   0  0  0  0  0  0  0  0  0  0  0  0
  -36.0190    3.9415  -44.5844 N   0  0  0  0  0  0  0  0  0  0  0  0
  -34.6396    3.8164  -44.0971 C   0  0  0  0  0  0  0  0  0  0  0  0
  -34.2770    5.0495  -43.2665 C   0  0  0  0  0  0  0  0  0  0  0  0
  -36.4107    2.6622  -45.6494 X   0  0  0  0  0  0  0  0  0  0  0  0
  1  2  1  0  0  0  0
  2  3  1  0  0  0  0
  2  6  1  0  0  0  0
  2  7  1  0  0  0  0
  3  4  1  0  0  0  0
  4  5  1  0  0  0  0
  5  6  1  0  0  0  0
  7  8  1  0  0  0  0
  7 12  1  0  0  0  0
  8  9  1  0  0  0  0
  9 10  1  0  0  0  0
 10 11  1  0  0  0  0
 10 13  1  0  0  0  0
 11 12  1  0  0  0  0
M  END
> <Index>
16705

> <PropertyFieldDistance>
nan

$$$$
4602256
BBcorina  12272117083D 1   1.00000     0.00000 
CORINA 4.3.0 0026  30.10.2019
 13 13  0  0  0  0  0  0  0  0999 V2000
  -34.5600   -1.8909  -48.9805 N   0  0  0  0  0  0  0  0  0  0  0  0
  -35.6293   -1.0688  -48.3985 C   0  0  0  0  0  0  0  0  0  0  0  0
  -35.0391   -0.1462  -47.3302 C   0  0  0  0  0  0  0  0  0  0  0  0
  -36.1528    0.7101  -46.7240 C   0  0  0  0  0  0  0  0  0  0  0  0
  -35.5626    1.6327  -45.6558 C   0  0  0  0  0  0  0  0  0  0  0  0
  -36.6762    2.4890  -45.0496 C   0  0  0  0  0  0  0  0  0  0  0  0
  -36.1096    3.3749  -44.0239 N   0  0  0  0  0  0  0  0  0  0  0  0
  -37.0947    4.3727  -43.5877 C   0  0  0  0  0  0  0  0  0  0  0  0
  -36.5217    5.1812  -42.4214 C   0  0  0  0  0  0  0  0  0  0  0  0
  -35.2319    5.8728  -42.8712 C   0  0  0  0  0  0  0  0  0  0  0  0
  -34.2408    4.8155  -43.3658 C   0  0  0  0  0  0  0  0  0  0  0  0
  -34.8799    4.0177  -44.5048 C   0  0  0  0  0  0  0  0  0  0  0  0
  -35.1780   -2.9392  -50.1820 X   0  0  0  0  0  0  0  0  0  0  0  0
  1  2  1  0  0  0  0
  1 13  1  0  0  0  0
  2  3  1  0  0  0  0
  3  4  1  0  0  0  0
  4  5  1  0  0  0  0
  5  6  1  0  0  0  0
  6  7  1  0  0  0  0
  7  8  1  0  0  0  0
  7 12  1  0  0  0  0
  8  9  1  0  0  0  0
  9 10  1  0  0  0  0
 10 11  1  0  0  0  0
 11 12  1  0  0  0  0
M  END
> <Index>
16707

> <PropertyFieldDistance>
nan

$$$$
15162494
BBcorina  12272117083D 1   1.00000     0.00000 
CORINA 4.3.0 0026  30.10.2019
 15 16  0  0  0  0  0  0  0  0999 V2000
  -35.6346    7.1217  -42.3363 N   0  0  0  0  0  0  0  0  0  0  0  0
  -35.6059    5.6667  -42.5366 C   0  0  0  0  0  0  0  0  0  0  0  0
  -36.9103    5.2175  -43.1991 C   0  0  0  0  0  0  0  0  0  0  0  0
  -36.8913    3.6958  -43.3751 C   0  0  0  0  0  0  0  0  0  0  0  0
  -35.6785    3.3203  -44.1144 N   0  0  0  0  0  0  0  0  0  0  0  0
  -34.3754    3.7783  -43.6135 C   0  0  0  0  0  0  0  0  0  0  0  0
  -34.4225    5.2990  -43.4349 C   0  0  0  0  0  0  0  0  0  0  0  0
  -35.7597    2.5697  -45.2309 C   0  0  0  0  0  0  0  0  0  0  0  0
  -34.7633    2.3620  -45.8984 O   0  0  0  0  0  0  0  0  0  0  0  0
  -37.0479    2.0032  -45.6412 C   0  0  0  0  0  0  0  0  0  0  0  0
  -37.4306    1.7555  -46.9294 C   0  0  0  0  0  0  0  0  0  0  0  0
  -38.6930    1.2203  -47.0280 C   0  0  0  0  0  0  0  0  0  0  0  0
  -39.3239    1.0354  -45.8625 C   0  0  0  0  0  0  0  0  0  0  0  0
  -38.3452    1.5269  -44.5542 S   0  0  0  0  0  0  0  0  0  0  0  0
  -35.9110    7.9383  -43.8130 X   0  0  0  0  0  0  0  0  0  0  0  0
  1  2  1  0  0  0  0
  1 15  1  0  0  0  0
  2  3  1  0  0  0  0
  2  7  1  0  0  0  0
  3  4  1  0  0  0  0
  4  5  1  0  0  0  0
  5  6  1  0  0  0  0
  5  8  1  0  0  0  0
  6  7  1  0  0  0  0
  8  9  2  0  0  0  0
  8 10  1  0  0  0  0
 10 11  2  0  0  0  0
 10 14  1  0  0  0  0
 11 12  1  0  0  0  0
 12 13  2  0  0  0  0
 13 14  1  0  0  0  0
M  END
> <Index>
16725

> <PropertyFieldDistance>
nan

$$$$
11349966
BBcorina  12272117083D 1   1.00000     0.00000 
CORINA 4.3.0 0026  30.10.2019
 12 13  0  0  0  0  0  0  0  0999 V2000
  -36.0357    4.0615  -44.6395 N   0  0  0  0  0  0  0  0  0  0  0  0
  -36.9771    4.0809  -43.5112 C   0  0  0  0  0  0  0  0  0  0  0  0
  -36.5936    5.2082  -42.5496 C   0  0  0  0  0  0  0  0  0  0  0  0
  -35.2168    5.0004  -42.0796 N   0  0  0  0  0  0  0  0  0  0  0  0
  -34.2754    4.9810  -43.2078 C   0  0  0  0  0  0  0  0  0  0  0  0
  -34.6590    3.8536  -44.1694 C   0  0  0  0  0  0  0  0  0  0  0  0
  -34.8585    5.9642  -41.1502 C   0  0  0  0  0  0  0  0  0  0  0  0
  -35.6257    6.9289  -40.7467 N   0  0  0  0  0  0  0  0  0  0  0  0
  -35.1211    7.7579  -39.8503 C   0  0  0  0  0  0  0  0  0  0  0  0
  -33.8673    7.4861  -39.4873 C   0  0  0  0  0  0  0  0  0  0  0  0
  -33.3381    6.0589  -40.3740 S   0  0  0  0  0  0  0  0  0  0  0  0
  -36.4779    2.8724  -45.7861 X   0  0  0  0  0  0  0  0  0  0  0  0
  1  2  1  0  0  0  0
  1  6  1  0  0  0  0
  1 12  1  0  0  0  0
  2  3  1  0  0  0  0
  3  4  1  0  0  0  0
  4  5  1  0  0  0  0
  4  7  1  0  0  0  0
  5  6  1  0  0  0  0
  7  8  2  0  0  0  0
  7 11  1  0  0  0  0
  8  9  1  0  0  0  0
  9 10  2  0  0  0  0
 10 11  1  0  0  0  0
M  END
> <Index>
16747

> <PropertyFieldDistance>
nan

$$$$
8158918
BBcorina  12272117083D 1   1.00000     0.00000 
CORINA 4.3.0 0026  30.10.2019
 10 10  0  0  0  0  0  0  0  0999 V2000
  -37.5896    5.7697  -41.6970 C   0  0  0  0  0  0  0  0  0  0  0  0
  -36.5702    4.8249  -42.3364 C   0  0  0  0  0  0  0  0  0  0  0  0
  -37.0096    4.4890  -43.7634 C   0  0  0  0  0  0  0  0  0  0  0  0
  -36.0087    3.6126  -44.3879 N   0  0  0  0  0  0  0  0  0  0  0  0
  -34.6919    4.2640  -44.4241 C   0  0  0  0  0  0  0  0  0  0  0  0
  -33.6722    3.3190  -45.0630 C   0  0  0  0  0  0  0  0  0  0  0  0
  -34.2524    4.6000  -42.9970 C   0  0  0  0  0  0  0  0  0  0  0  0
  -35.2534    5.4763  -42.3725 N   0  0  0  0  0  0  0  0  0  0  0  0
  -34.8300    5.8830  -41.0259 C   0  0  0  0  0  0  0  0  0  0  0  0
  -36.5014    3.1392  -45.9554 X   0  0  0  0  0  0  0  0  0  0  0  0
  1  2  1  0  0  0  0
  2  3  1  0  0  0  0
  2  8  1  0  0  0  0
  3  4  1  0  0  0  0
  4  5  1  0  0  0  0
  4 10  1  0  0  0  0
  5  6  1  0  0  0  0
  5  7  1  0  0  0  0
  7  8  1  0  0  0  0
  8  9  1  0  0  0  0
M  END
> <Index>
16768

> <PropertyFieldDistance>
nan

$$$$
15730204
BBcorina  12272117083D 1   1.00000     0.00000 
CORINA 4.3.0 0026  30.10.2019
 10 10  0  0  0  0  0  0  0  0999 V2000
  -38.2982    7.7139  -40.4384 C   0  0  0  0  0  0  0  0  0  0  0  0
  -37.3539    6.7382  -40.8835 O   0  0  0  0  0  0  0  0  0  0  0  0
  -37.6840    6.1401  -42.1386 C   0  0  0  0  0  0  0  0  0  0  0  0
  -36.6101    5.1171  -42.5144 C   0  0  0  0  0  0  0  0  0  0  0  0
  -37.0250    4.3871  -43.7945 C   0  0  0  0  0  0  0  0  0  0  0  0
  -35.9556    3.4605  -44.1936 N   0  0  0  0  0  0  0  0  0  0  0  0
  -34.6940    4.1834  -44.4108 C   0  0  0  0  0  0  0  0  0  0  0  0
  -34.3026    4.9154  -43.1244 C   0  0  0  0  0  0  0  0  0  0  0  0
  -35.3668    5.7882  -42.7358 O   0  0  0  0  0  0  0  0  0  0  0  0
  -36.4018    2.5727  -45.5854 X   0  0  0  0  0  0  0  0  0  0  0  0
  1  2  1  0  0  0  0
  2  3  1  0  0  0  0
  3  4  1  0  0  0  0
  4  5  1  0  0  0  0
  4  9  1  0  0  0  0
  5  6  1  0  0  0  0
  6  7  1  0  0  0  0
  6 10  1  0  0  0  0
  7  8  1  0  0  0  0
  8  9  1  0  0  0  0
M  END
> <Index>
16771

> <PropertyFieldDistance>
nan

$$$$
7144358
BBcorina  12272117083D 1   1.00000     0.00000 
CORINA 4.3.0 0026  30.10.2019
 11 12  0  0  0  0  0  0  0  0999 V2000
  -35.9416    3.5213  -44.1839 N   0  0  0  0  0  0  0  0  0  0  0  0
  -37.0259    4.4149  -43.7610 C   0  0  0  0  0  0  0  0  0  0  0  0
  -36.6845    5.0400  -42.3990 C   0  0  0  0  0  0  0  0  0  0  0  0
  -35.3289    5.5961  -42.5093 N   0  0  0  0  0  0  0  0  0  0  0  0
  -34.1990    4.8139  -43.0687 C   0  0  0  0  0  0  0  0  0  0  0  0
  -33.1151    5.8804  -43.2889 C   0  0  0  0  0  0  0  0  0  0  0  0
  -33.6623    7.0771  -42.6586 O   0  0  0  0  0  0  0  0  0  0  0  0
  -34.8916    6.8138  -42.1924 C   0  0  0  0  0  0  0  0  0  0  0  0
  -35.5432    7.6083  -41.5437 O   0  0  0  0  0  0  0  0  0  0  0  0
  -34.6778    4.2402  -44.4056 C   0  0  0  0  0  0  0  0  0  0  0  0
  -36.3900    2.6276  -45.5711 X   0  0  0  0  0  0  0  0  0  0  0  0
  1  2  1  0  0  0  0
  1 10  1  0  0  0  0
  1 11  1  0  0  0  0
  2  3  1  0  0  0  0
  3  4  1  0  0  0  0
  4  5  1  0  0  0  0
  4  8  1  0  0  0  0
  5  6  1  0  0  0  0
  5 10  1  0  0  0  0
  6  7  1  0  0  0  0
  7  8  1  0  0  0  0
  8  9  2  0  0  0  0
M  END
> <Index>
16778

> <PropertyFieldDistance>
nan

$$$$
17518304
BBcorina  12272117083D 1   1.00000     0.00000 
CORINA 4.3.0 0026  30.10.2019
  9 10  0  0  0  0  0  0  0  0999 V2000
  -33.9052    3.8837  -42.5374 N   0  0  0  0  0  0  0  0  0  0  0  0
  -35.2753    3.3539  -42.5272 C   0  0  0  0  0  0  0  0  0  0  0  0
  -36.2369    4.3328  -43.2389 C   0  0  0  0  0  0  0  0  0  0  0  0
  -36.8110    3.5145  -44.4391 C   0  0  0  0  0  0  0  0  0  0  0  0
  -35.6071    3.3634  -45.4184 C   0  0  0  0  0  0  0  0  0  0  0  0
  -34.6438    2.3869  -44.7057 C   0  0  0  0  0  0  0  0  0  0  0  0
  -35.3563    2.0400  -43.3629 C   0  0  0  0  0  0  0  0  0  0  0  0
  -36.8591    2.0755  -43.8143 C   0  0  0  0  0  0  0  0  0  0  0  0
  -33.6315    4.9013  -41.1907 X   0  0  0  0  0  0  0  0  0  0  0  0
  1  2  1  0  0  0  0
  1  9  1  0  0  0  0
  2  3  1  0  0  0  0
  2  7  1  0  0  0  0
  3  4  1  0  0  0  0
  4  5  1  0  0  0  0
  4  8  1  0  0  0  0
  5  6  1  0  0  0  0
  6  7  1  0  0  0  0
  7  8  1  0  0  0  0
M  END
> <Index>
16859

> <PropertyFieldDistance>
nan

$$$$
11973152
BBcorina  12272117083D 1   1.00000     0.00000 
CORINA 4.3.0 0026  30.10.2019
 11 11  0  0  0  0  0  0  0  0999 V2000
  -33.9503    7.4185  -43.4301 C   0  0  0  0  0  0  0  0  0  0  0  0
  -34.3723    6.2190  -44.0822 O   0  0  0  0  0  0  0  0  0  0  0  0
  -34.2769    5.0496  -43.2665 C   0  0  0  0  0  0  0  0  0  0  0  0
  -32.8471    4.9088  -42.7405 C   0  0  0  0  0  0  0  0  0  0  0  0
  -31.9404    4.8262  -43.8419 O   0  0  0  0  0  0  0  0  0  0  0  0
  -35.2462    5.1675  -42.0870 C   0  0  0  0  0  0  0  0  0  0  0  0
  -36.6793    5.2475  -42.6202 C   0  0  0  0  0  0  0  0  0  0  0  0
  -36.9723    4.0087  -43.4695 C   0  0  0  0  0  0  0  0  0  0  0  0
  -36.0191    3.9414  -44.5845 N   0  0  0  0  0  0  0  0  0  0  0  0
  -34.6396    3.8164  -44.0970 C   0  0  0  0  0  0  0  0  0  0  0  0
  -36.4110    2.6621  -45.6494 X   0  0  0  0  0  0  0  0  0  0  0  0
  1  2  1  0  0  0  0
  2  3  1  0  0  0  0
  3  4  1  0  0  0  0
  3  6  1  0  0  0  0
  3 10  1  0  0  0  0
  4  5  1  0  0  0  0
  6  7  1  0  0  0  0
  7  8  1  0  0  0  0
  8  9  1  0  0  0  0
  9 10  1  0  0  0  0
  9 11  1  0  0  0  0
M  END
> <Index>
16876

> <PropertyFieldDistance>
nan

$$$$
12306622
BBcorina  12272117083D 1   1.00000     0.00000 
CORINA 4.3.0 0026  30.10.2019
 12 13  0  0  0  0  0  0  0  0999 V2000
  -35.9662    4.3753  -44.3198 N   0  0  0  0  0  0  0  0  0  0  0  0
  -37.0569    3.8444  -43.4426 C   0  0  0  0  0  0  0  0  0  0  0  0
  -37.1003    5.0965  -42.6534 C   0  0  0  0  0  0  0  0  0  0  0  0
  -35.9339    5.3640  -41.7639 C   0  0  0  0  0  0  0  0  0  0  0  0
  -35.0528    4.1127  -41.7136 C   0  0  0  0  0  0  0  0  0  0  0  0
  -33.6801    4.3575  -42.2230 C   0  0  0  0  0  0  0  0  0  0  0  0
  -33.8301    4.9891  -43.5921 C   0  0  0  0  0  0  0  0  0  0  0  0
  -34.6338    3.7582  -44.0299 C   0  0  0  0  0  0  0  0  0  0  0  0
  -34.7362    6.2898  -42.7392 S   0  0  0  0  0  0  0  0  0  0  0  0
  -33.8456    6.9494  -41.8497 O   0  0  0  0  0  0  0  0  0  0  0  0
  -35.4399    7.0564  -43.7068 O   0  0  0  0  0  0  0  0  0  0  0  0
  -36.3727    4.2078  -45.9723 X   0  0  0  0  0  0  0  0  0  0  0  0
  1  2  1  0  0  0  0
  1  8  1  0  0  0  0
  1 12  1  0  0  0  0
  2  3  1  0  0  0  0
  3  4  1  0  0  0  0
  4  5  1  0  0  0  0
  4  9  1  0  0  0  0
  5  6  1  0  0  0  0
  6  7  1  0  0  0  0
  7  8  1  0  0  0  0
  7  9  1  0  0  0  0
  9 10  2  0  0  0  0
  9 11  2  0  0  0  0
M  END
> <Index>
16877

> <PropertyFieldDistance>
nan

$$$$
12526334
BBcorina  12272117083D 1   1.00000     0.00000 
CORINA 4.3.0 0026  30.10.2019
 11 11  0  0  0  0  0  0  0  0999 V2000
  -36.5937    2.2388  -44.9599 C   0  0  0  0  0  0  0  0  0  0  0  0
  -36.0135    3.3366  -44.1751 N   0  0  0  0  0  0  0  0  0  0  0  0
  -37.0622    4.0840  -43.4384 C   0  0  0  0  0  0  0  0  0  0  0  0
  -36.5469    5.4052  -42.8395 C   0  0  0  0  0  0  0  0  0  0  0  0
  -35.2367    5.2718  -42.2510 N   0  0  0  0  0  0  0  0  0  0  0  0
  -34.1980    5.6428  -43.2394 C   0  0  0  0  0  0  0  0  0  0  0  0
  -33.9155    4.5581  -44.1770 C   0  0  0  0  0  0  0  0  0  0  0  0
  -35.1631    4.1649  -44.9946 C   0  0  0  0  0  0  0  0  0  0  0  0
  -35.9223    5.4261  -45.4115 C   0  0  0  0  0  0  0  0  0  0  0  0
  -34.7359    3.3871  -46.2410 C   0  0  0  0  0  0  0  0  0  0  0  0
  -35.1016    6.2205  -40.8348 X   0  0  0  0  0  0  0  0  0  0  0  0
  1  2  1  0  0  0  0
  2  3  1  0  0  0  0
  2  8  1  0  0  0  0
  3  4  1  0  0  0  0
  4  5  1  0  0  0  0
  5  6  1  0  0  0  0
  5 11  1  0  0  0  0
  6  7  1  0  0  0  0
  7  8  1  0  0  0  0
  8  9  1  0  0  0  0
  8 10  1  0  0  0  0
M  END
> <Index>
16885

> <PropertyFieldDistance>
nan

$$$$
12297860
BBcorina  12272117083D 1   1.00000     0.00000 
CORINA 4.3.0 0026  30.10.2019
 16 17  0  0  0  0  0  0  0  0999 V2000
  -35.8273    6.8916  -43.7164 C   0  0  0  0  0  0  0  0  0  0  0  0
  -35.5961    5.8296  -42.6398 C   0  0  0  0  0  0  0  0  0  0  0  0
  -36.8000    4.8849  -42.5860 C   0  0  0  0  0  0  0  0  0  0  0  0
  -36.9371    4.1629  -43.9283 C   0  0  0  0  0  0  0  0  0  0  0  0
  -35.7100    3.4056  -44.2059 N   0  0  0  0  0  0  0  0  0  0  0  0
  -35.8579    2.5897  -45.4185 C   0  0  0  0  0  0  0  0  0  0  0  0
  -36.8931    1.5205  -45.1814 C   0  0  0  0  0  0  0  0  0  0  0  0
  -38.2225    1.7703  -45.4665 C   0  0  0  0  0  0  0  0  0  0  0  0
  -39.1721    0.7896  -45.2490 C   0  0  0  0  0  0  0  0  0  0  0  0
  -38.7923   -0.4412  -44.7472 C   0  0  0  0  0  0  0  0  0  0  0  0
  -37.4628   -0.6913  -44.4630 C   0  0  0  0  0  0  0  0  0  0  0  0
  -36.5126    0.2881  -44.6842 C   0  0  0  0  0  0  0  0  0  0  0  0
  -34.5479    4.2972  -44.3100 C   0  0  0  0  0  0  0  0  0  0  0  0
  -34.3394    5.0232  -42.9790 C   0  0  0  0  0  0  0  0  0  0  0  0
  -33.1896    5.9306  -43.0902 N   0  0  0  0  0  0  0  0  0  0  0  0
  -33.3269    6.9272  -44.4728 X   0  0  0  0  0  0  0  0  0  0  0  0
  1  2  1  0  0  0  0
  2  3  1  0  0  0  0
  2 14  1  0  0  0  0
  3  4  1  0  0  0  0
  4  5  1  0  0  0  0
  5  6  1  0  0  0  0
  5 13  1  0  0  0  0
  6  7  1  0  0  0  0
  7  8  2  0  0  0  0
  7 12  1  0  0  0  0
  8  9  1  0  0  0  0
  9 10  2  0  0  0  0
 10 11  1  0  0  0  0
 11 12  2  0  0  0  0
 13 14  1  0  0  0  0
 14 15  1  0  0  0  0
 15 16  1  0  0  0  0
M  END
> <Index>
16888

> <PropertyFieldDistance>
nan

$$$$
13949846
BBcorina  12272117083D 1   1.00000     0.00000 
CORINA 4.3.0 0026  30.10.2019
 15 15  0  0  0  0  0  0  0  0999 V2000
  -35.6173    1.7386  -45.8434 C   0  0  0  0  0  0  0  0  0  0  0  0
  -36.6767    2.6718  -45.2535 C   0  0  0  0  0  0  0  0  0  0  0  0
  -37.9271    1.8644  -44.8993 C   0  0  0  0  0  0  0  0  0  0  0  0
  -36.1464    3.3104  -44.0415 N   0  0  0  0  0  0  0  0  0  0  0  0
  -37.0919    4.3034  -43.5128 C   0  0  0  0  0  0  0  0  0  0  0  0
  -36.5396    4.8869  -42.2101 C   0  0  0  0  0  0  0  0  0  0  0  0
  -35.2279    5.4975  -42.4674 N   0  0  0  0  0  0  0  0  0  0  0  0
  -34.2824    4.5044  -42.9960 C   0  0  0  0  0  0  0  0  0  0  0  0
  -34.8347    3.9210  -44.2986 C   0  0  0  0  0  0  0  0  0  0  0  0
  -34.6976    6.1361  -41.2553 C   0  0  0  0  0  0  0  0  0  0  0  0
  -34.5427    5.0870  -40.1523 C   0  0  0  0  0  0  0  0  0  0  0  0
  -35.6638    7.2271  -40.7894 C   0  0  0  0  0  0  0  0  0  0  0  0
  -33.3343    6.7592  -41.5618 C   0  0  0  0  0  0  0  0  0  0  0  0
  -33.4831    7.7663  -42.6208 N   0  0  0  0  0  0  0  0  0  0  0  0
  -31.9791    8.4890  -42.9949 X   0  0  0  0  0  0  0  0  0  0  0  0
  1  2  1  0  0  0  0
  2  3  1  0  0  0  0
  2  4  1  0  0  0  0
  4  5  1  0  0  0  0
  4  9  1  0  0  0  0
  5  6  1  0  0  0  0
  6  7  1  0  0  0  0
  7  8  1  0  0  0  0
  7 10  1  0  0  0  0
  8  9  1  0  0  0  0
 10 11  1  0  0  0  0
 10 12  1  0  0  0  0
 10 13  1  0  0  0  0
 13 14  1  0  0  0  0
 14 15  1  0  0  0  0
M  END
> <Index>
16901

> <PropertyFieldDistance>
nan

$$$$
16504798
BBcorina  12272117083D 1   1.00000     0.00000 
CORINA 4.3.0 0026  30.10.2019
 14 14  0  0  0  0  0  0  0  0999 V2000
  -33.4427    7.0746  -41.6492 C   0  0  0  0  0  0  0  0  0  0  0  0
  -34.8250    6.9570  -42.1323 N   0  0  0  0  0  0  0  0  0  0  0  0
  -35.0461    7.8093  -43.3082 C   0  0  0  0  0  0  0  0  0  0  0  0
  -35.1630    5.5578  -42.4253 C   0  0  0  0  0  0  0  0  0  0  0  0
  -36.6430    5.4577  -42.8054 C   0  0  0  0  0  0  0  0  0  0  0  0
  -36.9748    4.0081  -43.1667 C   0  0  0  0  0  0  0  0  0  0  0  0
  -36.1324    3.5770  -44.2896 N   0  0  0  0  0  0  0  0  0  0  0  0
  -36.5188    2.2379  -44.7540 C   0  0  0  0  0  0  0  0  0  0  0  0
  -35.7986    1.9261  -46.0673 C   0  0  0  0  0  0  0  0  0  0  0  0
  -36.2011    0.5314  -46.5510 C   0  0  0  0  0  0  0  0  0  0  0  0
  -35.5096    0.2320  -47.8120 N   0  0  0  0  0  0  0  0  0  0  0  0
  -34.7088    3.6196  -43.9322 C   0  0  0  0  0  0  0  0  0  0  0  0
  -34.3091    5.0575  -43.5937 C   0  0  0  0  0  0  0  0  0  0  0  0
  -35.9323   -1.3214  -48.3887 X   0  0  0  0  0  0  0  0  0  0  0  0
  1  2  1  0  0  0  0
  2  3  1  0  0  0  0
  2  4  1  0  0  0  0
  4  5  1  0  0  0  0
  4 13  1  0  0  0  0
  5  6  1  0  0  0  0
  6  7  1  0  0  0  0
  7  8  1  0  0  0  0
  7 12  1  0  0  0  0
  8  9  1  0  0  0  0
  9 10  1  0  0  0  0
 10 11  1  0  0  0  0
 11 14  1  0  0  0  0
 12 13  1  0  0  0  0
M  END
> <Index>
16903

> <PropertyFieldDistance>
nan

$$$$
16516606
BBcorina  12272117083D 1   1.00000     0.00000 
CORINA 4.3.0 0026  30.10.2019
 16 17  0  0  0  0  0  0  0  0999 V2000
  -35.9675    7.9662  -41.6634 C   0  0  0  0  0  0  0  0  0  0  0  0
  -34.9726    6.9071  -41.8790 N   0  0  0  0  0  0  0  0  0  0  0  0
  -34.7312    6.1519  -40.6423 C   0  0  0  0  0  0  0  0  0  0  0  0
  -35.3833    6.0133  -42.9700 C   0  0  0  0  0  0  0  0  0  0  0  0
  -36.6554    5.2624  -42.5667 C   0  0  0  0  0  0  0  0  0  0  0  0
  -37.0432    4.2897  -43.6827 C   0  0  0  0  0  0  0  0  0  0  0  0
  -35.9453    3.3417  -43.9110 N   0  0  0  0  0  0  0  0  0  0  0  0
  -34.7262    4.0356  -44.3451 C   0  0  0  0  0  0  0  0  0  0  0  0
  -34.2692    5.0007  -43.2489 C   0  0  0  0  0  0  0  0  0  0  0  0
  -36.3354    2.3075  -44.8787 C   0  0  0  0  0  0  0  0  0  0  0  0
  -35.1317    1.4116  -45.1832 C   0  0  0  0  0  0  0  0  0  0  0  0
  -35.5593    0.3002  -46.1443 C   0  0  0  0  0  0  0  0  0  0  0  0
  -36.6372   -0.4885  -45.5341 N   0  0  0  0  0  0  0  0  0  0  0  0
  -37.8213    0.3408  -45.2761 C   0  0  0  0  0  0  0  0  0  0  0  0
  -37.4622    1.4545  -44.2896 C   0  0  0  0  0  0  0  0  0  0  0  0
  -37.0344   -1.8385  -46.5057 X   0  0  0  0  0  0  0  0  0  0  0  0
  1  2  1  0  0  0  0
  2  3  1  0  0  0  0
  2  4  1  0  0  0  0
  4  5  1  0  0  0  0
  4  9  1  0  0  0  0
  5  6  1  0  0  0  0
  6  7  1  0  0  0  0
  7  8  1  0  0  0  0
  7 10  1  0  0  0  0
  8  9  1  0  0  0  0
 10 11  1  0  0  0  0
 10 15  1  0  0  0  0
 11 12  1  0  0  0  0
 12 13  1  0  0  0  0
 13 14  1  0  0  0  0
 13 16  1  0  0  0  0
 14 15  1  0  0  0  0
M  END
> <Index>
16904

> <PropertyFieldDistance>
nan

$$$$
7832570
BBcorina  12272117083D 1   1.00000     0.00000 
CORINA 4.3.0 0026  30.10.2019
  8  8  0  0  0  0  0  0  0  0999 V2000
  -35.1176    6.6877  -41.4667 C   0  0  0  0  0  0  0  0  0  0  0  0
  -35.4056    5.6114  -42.4816 C   0  0  0  0  0  0  0  0  0  0  0  0
  -36.6172    5.1544  -42.5744 C   0  0  0  0  0  0  0  0  0  0  0  0
  -37.0213    4.0825  -43.5451 C   0  0  0  0  0  0  0  0  0  0  0  0
  -36.0031    3.9345  -44.5928 N   0  0  0  0  0  0  0  0  0  0  0  0
  -34.6695    3.7815  -43.9878 C   0  0  0  0  0  0  0  0  0  0  0  0
  -34.2763    5.1106  -43.3377 C   0  0  0  0  0  0  0  0  0  0  0  0
  -36.0377    5.2601  -45.6726 X   0  0  0  0  0  0  0  0  0  0  0  0
  1  2  1  0  0  0  0
  2  3  2  0  0  0  0
  2  7  1  0  0  0  0
  3  4  1  0  0  0  0
  4  5  1  0  0  0  0
  5  6  1  0  0  0  0
  5  8  1  0  0  0  0
  6  7  1  0  0  0  0
M  END
> <Index>
16911

> <PropertyFieldDistance>
nan

$$$$
11761414
BBcorina  12272117083D 1   1.00000     0.00000 
CORINA 4.3.0 0026  30.10.2019
 11 12  0  0  0  0  0  0  0  0999 V2000
  -36.7690    8.2546  -41.4319 O   0  0  0  0  0  0  0  0  0  0  0  0
  -36.5851    6.9136  -40.9735 C   0  0  0  0  0  0  0  0  0  0  0  0
  -37.5297    5.9471  -41.7338 C   0  0  0  0  0  0  0  0  0  0  0  0
  -36.5822    4.9359  -42.3857 C   0  0  0  0  0  0  0  0  0  0  0  0
  -37.0316    4.4431  -43.7533 C   0  0  0  0  0  0  0  0  0  0  0  0
  -35.9797    3.5440  -44.2663 N   0  0  0  0  0  0  0  0  0  0  0  0
  -34.6686    4.1950  -44.3461 C   0  0  0  0  0  0  0  0  0  0  0  0
  -34.2681    4.7971  -42.9900 C   0  0  0  0  0  0  0  0  0  0  0  0
  -35.3274    5.7113  -42.5861 N   0  0  0  0  0  0  0  0  0  0  0  0
  -35.1522    6.4194  -41.3105 C   0  0  0  0  0  0  0  0  0  0  0  0
  -36.4259    2.8777  -45.7766 X   0  0  0  0  0  0  0  0  0  0  0  0
  1  2  1  0  0  0  0
  2  3  1  0  0  0  0
  2 10  1  0  0  0  0
  3  4  1  0  0  0  0
  4  5  1  0  0  0  0
  4  9  1  0  0  0  0
  5  6  1  0  0  0  0
  6  7  1  0  0  0  0
  6 11  1  0  0  0  0
  7  8  1  0  0  0  0
  8  9  1  0  0  0  0
  9 10  1  0  0  0  0
M  END
> <Index>
16913

> <PropertyFieldDistance>
nan

$$$$
6546378
BBcorina  12272117083D 1   1.00000     0.00000 
CORINA 4.3.0 0026  30.10.2019
  8  8  0  0  0  0  0  0  0  0999 V2000
  -32.8568    5.1116  -41.6072 C   0  0  0  0  0  0  0  0  0  0  0  0
  -34.0462    5.5089  -42.2924 O   0  0  0  0  0  0  0  0  0  0  0  0
  -34.9963    4.4557  -42.4657 C   0  0  0  0  0  0  0  0  0  0  0  0
  -36.4271    5.0338  -42.5595 C   0  0  0  0  0  0  0  0  0  0  0  0
  -37.0854    4.1536  -43.6516 C   0  0  0  0  0  0  0  0  0  0  0  0
  -35.9828    3.9350  -44.6224 N   0  0  0  0  0  0  0  0  0  0  0  0
  -34.7625    3.7407  -43.8095 C   0  0  0  0  0  0  0  0  0  0  0  0
  -36.2908    2.5675  -45.6018 X   0  0  0  0  0  0  0  0  0  0  0  0
  1  2  1  0  0  0  0
  2  3  1  0  0  0  0
  3  4  1  0  0  0  0
  3  7  1  0  0  0  0
  4  5  1  0  0  0  0
  5  6  1  0  0  0  0
  6  7  1  0  0  0  0
  6  8  1  0  0  0  0
M  END
> <Index>
16914

> <PropertyFieldDistance>
nan

$$$$
12111946
BBcorina  12272117083D 1   1.00000     0.00000 
CORINA 4.3.0 0026  30.10.2019
 11 12  0  0  0  0  0  0  0  0999 V2000
  -35.5414    6.8749  -43.7195 O   0  0  0  0  0  0  0  0  0  0  0  0
  -35.3534    5.8832  -42.7080 C   0  0  0  0  0  0  0  0  0  0  0  0
  -36.6587    5.1099  -42.5008 C   0  0  0  0  0  0  0  0  0  0  0  0
  -37.0290    4.3869  -43.7977 C   0  0  0  0  0  0  0  0  0  0  0  0
  -35.9479    3.4664  -44.1723 N   0  0  0  0  0  0  0  0  0  0  0  0
  -34.6959    4.1916  -44.4227 C   0  0  0  0  0  0  0  0  0  0  0  0
  -34.2558    4.9088  -43.1443 C   0  0  0  0  0  0  0  0  0  0  0  0
  -34.9458    6.5589  -41.3972 C   0  0  0  0  0  0  0  0  0  0  0  0
  -33.6595    7.3873  -41.3996 C   0  0  0  0  0  0  0  0  0  0  0  0
  -35.0200    8.0859  -41.3367 C   0  0  0  0  0  0  0  0  0  0  0  0
  -36.3899    2.5210  -45.5269 X   0  0  0  0  0  0  0  0  0  0  0  0
  1  2  1  0  0  0  0
  2  3  1  0  0  0  0
  2  7  1  0  0  0  0
  2  8  1  0  0  0  0
  3  4  1  0  0  0  0
  4  5  1  0  0  0  0
  5  6  1  0  0  0  0
  5 11  1  0  0  0  0
  6  7  1  0  0  0  0
  8  9  1  0  0  0  0
  8 10  1  0  0  0  0
  9 10  1  0  0  0  0
M  END
> <Index>
16915

> <PropertyFieldDistance>
nan

$$$$
13436906
BBcorina  12272117083D 1   1.00000     0.00000 
CORINA 4.3.0 0026  30.10.2019
  9 10  0  0  0  0  0  0  0  0999 V2000
  -35.9862    3.9304  -44.6352 N   0  0  0  0  0  0  0  0  0  0  0  0
  -37.0709    4.1500  -43.6446 C   0  0  0  0  0  0  0  0  0  0  0  0
  -36.4327    5.0394  -42.5569 C   0  0  0  0  0  0  0  0  0  0  0  0
  -36.8651    4.5439  -41.1625 C   0  0  0  0  0  0  0  0  0  0  0  0
  -35.5667    4.5895  -40.3202 C   0  0  0  0  0  0  0  0  0  0  0  0
  -34.4885    4.1243  -41.3295 C   0  0  0  0  0  0  0  0  0  0  0  0
  -34.9109    4.7706  -42.6638 C   0  0  0  0  0  0  0  0  0  0  0  0
  -34.7679    3.7433  -43.8064 C   0  0  0  0  0  0  0  0  0  0  0  0
  -36.2978    2.5450  -45.5881 X   0  0  0  0  0  0  0  0  0  0  0  0
  1  2  1  0  0  0  0
  1  8  1  0  0  0  0
  1  9  1  0  0  0  0
  2  3  1  0  0  0  0
  3  4  1  0  0  0  0
  3  7  1  0  0  0  0
  4  5  1  0  0  0  0
  5  6  1  0  0  0  0
  6  7  1  0  0  0  0
  7  8  1  0  0  0  0
M  END
> <Index>
16916

> <PropertyFieldDistance>
nan

$$$$
16736082
BBcorina  12272117083D 1   1.00000     0.00000 
CORINA 4.3.0 0026  30.10.2019
  9  9  0  0  0  0  0  0  0  0999 V2000
  -35.9384    3.5336  -44.0069 N   0  0  0  0  0  0  0  0  0  0  0  0
  -36.7961    4.7091  -43.7994 C   0  0  0  0  0  0  0  0  0  0  0  0
  -37.1742    4.8056  -42.3177 C   0  0  0  0  0  0  0  0  0  0  0  0
  -35.9763    5.3228  -41.5220 C   0  0  0  0  0  0  0  0  0  0  0  0
  -34.9513    4.2014  -41.3506 C   0  0  0  0  0  0  0  0  0  0  0  0
  -33.6880    4.5434  -42.1446 C   0  0  0  0  0  0  0  0  0  0  0  0
  -34.0988    5.0853  -43.5178 C   0  0  0  0  0  0  0  0  0  0  0  0
  -34.5798    3.9301  -44.3959 C   0  0  0  0  0  0  0  0  0  0  0  0
  -36.6212    2.4728  -45.1613 X   0  0  0  0  0  0  0  0  0  0  0  0
  1  2  1  0  0  0  0
  1  8  1  0  0  0  0
  1  9  1  0  0  0  0
  2  3  1  0  0  0  0
  3  4  1  0  0  0  0
  4  5  1  0  0  0  0
  5  6  1  0  0  0  0
  6  7  1  0  0  0  0
  7  8  1  0  0  0  0
M  END
> <Index>
16917

> <PropertyFieldDistance>
nan

$$$$
6508840
BBcorina  12272117083D 1   1.00000     0.00000 
CORINA 4.3.0 0026  30.10.2019
  9  9  0  0  0  0  0  0  0  0999 V2000
  -31.8353    4.6970  -43.7261 C   0  0  0  0  0  0  0  0  0  0  0  0
  -32.9630    5.6821  -43.4116 C   0  0  0  0  0  0  0  0  0  0  0  0
  -34.2558    4.9088  -43.1443 C   0  0  0  0  0  0  0  0  0  0  0  0
  -35.3535    5.8832  -42.7080 C   0  0  0  0  0  0  0  0  0  0  0  0
  -36.6587    5.1099  -42.5007 C   0  0  0  0  0  0  0  0  0  0  0  0
  -37.0290    4.3869  -43.7977 C   0  0  0  0  0  0  0  0  0  0  0  0
  -35.9479    3.4664  -44.1723 N   0  0  0  0  0  0  0  0  0  0  0  0
  -34.6959    4.1916  -44.4226 C   0  0  0  0  0  0  0  0  0  0  0  0
  -36.3899    2.5210  -45.5269 X   0  0  0  0  0  0  0  0  0  0  0  0
  1  2  1  0  0  0  0
  2  3  1  0  0  0  0
  3  4  1  0  0  0  0
  3  8  1  0  0  0  0
  4  5  1  0  0  0  0
  5  6  1  0  0  0  0
  6  7  1  0  0  0  0
  7  8  1  0  0  0  0
  7  9  1  0  0  0  0
M  END
> <Index>
16919

> <PropertyFieldDistance>
nan

$$$$
9398570
BBcorina  12272117083D 1   1.00000     0.00000 
CORINA 4.3.0 0026  30.10.2019
  8  8  0  0  0  0  0  0  0  0999 V2000
  -32.9630    5.6821  -43.4117 C   0  0  0  0  0  0  0  0  0  0  0  0
  -34.2558    4.9088  -43.1443 C   0  0  0  0  0  0  0  0  0  0  0  0
  -35.3534    5.8832  -42.7080 C   0  0  0  0  0  0  0  0  0  0  0  0
  -36.6587    5.1099  -42.5008 C   0  0  0  0  0  0  0  0  0  0  0  0
  -37.0290    4.3869  -43.7977 C   0  0  0  0  0  0  0  0  0  0  0  0
  -35.9480    3.4665  -44.1722 N   0  0  0  0  0  0  0  0  0  0  0  0
  -34.6958    4.1916  -44.4227 C   0  0  0  0  0  0  0  0  0  0  0  0
  -36.3902    2.5211  -45.5268 X   0  0  0  0  0  0  0  0  0  0  0  0
  1  2  1  0  0  0  0
  2  3  1  0  0  0  0
  2  7  1  0  0  0  0
  3  4  1  0  0  0  0
  4  5  1  0  0  0  0
  5  6  1  0  0  0  0
  6  7  1  0  0  0  0
  6  8  1  0  0  0  0
M  END
> <Index>
16920

> <PropertyFieldDistance>
nan

$$$$
8687232
BBcorina  12272117083D 1   1.00000     0.00000 
CORINA 4.3.0 0026  30.10.2019
 10 10  0  0  0  0  0  0  0  0999 V2000
  -37.6581    5.3065  -41.4444 C   0  0  0  0  0  0  0  0  0  0  0  0
  -36.6797    5.2481  -42.6192 C   0  0  0  0  0  0  0  0  0  0  0  0
  -36.9722    4.0084  -43.4698 C   0  0  0  0  0  0  0  0  0  0  0  0
  -36.0190    3.9413  -44.5848 N   0  0  0  0  0  0  0  0  0  0  0  0
  -34.6395    3.8163  -44.0972 C   0  0  0  0  0  0  0  0  0  0  0  0
  -34.2769    5.0495  -43.2666 C   0  0  0  0  0  0  0  0  0  0  0  0
  -34.3800    6.3017  -44.1395 C   0  0  0  0  0  0  0  0  0  0  0  0
  -32.8470    4.9097  -42.7406 C   0  0  0  0  0  0  0  0  0  0  0  0
  -35.2462    5.1673  -42.0871 C   0  0  0  0  0  0  0  0  0  0  0  0
  -36.4107    2.6621  -45.6499 X   0  0  0  0  0  0  0  0  0  0  0  0
  1  2  1  0  0  0  0
  2  3  1  0  0  0  0
  2  9  1  0  0  0  0
  3  4  1  0  0  0  0
  4  5  1  0  0  0  0
  4 10  1  0  0  0  0
  5  6  1  0  0  0  0
  6  7  1  0  0  0  0
  6  8  1  0  0  0  0
  6  9  1  0  0  0  0
M  END
> <Index>
16924

> <PropertyFieldDistance>
nan

$$$$
14947428
BBcorina  12272117083D 1   1.00000     0.00000 
CORINA 4.3.0 0026  30.10.2019
 10 10  0  0  0  0  0  0  0  0999 V2000
  -38.3968    4.0941  -44.0212 C   0  0  0  0  0  0  0  0  0  0  0  0
  -36.9723    4.0086  -43.4694 C   0  0  0  0  0  0  0  0  0  0  0  0
  -36.0191    3.9414  -44.5845 N   0  0  0  0  0  0  0  0  0  0  0  0
  -34.6396    3.8164  -44.0970 C   0  0  0  0  0  0  0  0  0  0  0  0
  -34.2769    5.0496  -43.2665 C   0  0  0  0  0  0  0  0  0  0  0  0
  -35.2462    5.1676  -42.0870 C   0  0  0  0  0  0  0  0  0  0  0  0
  -36.6793    5.2476  -42.6202 C   0  0  0  0  0  0  0  0  0  0  0  0
  -37.6587    5.3053  -41.4461 C   0  0  0  0  0  0  0  0  0  0  0  0
  -36.8356    6.5047  -43.4781 C   0  0  0  0  0  0  0  0  0  0  0  0
  -36.4111    2.6621  -45.6494 X   0  0  0  0  0  0  0  0  0  0  0  0
  1  2  1  0  0  0  0
  2  3  1  0  0  0  0
  2  7  1  0  0  0  0
  3  4  1  0  0  0  0
  3 10  1  0  0  0  0
  4  5  1  0  0  0  0
  5  6  1  0  0  0  0
  6  7  1  0  0  0  0
  7  8  1  0  0  0  0
  7  9  1  0  0  0  0
M  END
> <Index>
16925

> <PropertyFieldDistance>
nan

$$$$
7555770
BBcorina  12272117083D 1   1.00000     0.00000 
CORINA 4.3.0 0026  30.10.2019
 11 12  0  0  0  0  0  0  0  0999 V2000
  -36.0191    3.9408  -44.5849 N   0  0  0  0  0  0  0  0  0  0  0  0
  -36.9703    4.0079  -43.4682 C   0  0  0  0  0  0  0  0  0  0  0  0
  -36.6808    5.2500  -42.6198 C   0  0  0  0  0  0  0  0  0  0  0  0
  -35.2472    5.1725  -42.0868 C   0  0  0  0  0  0  0  0  0  0  0  0
  -34.2787    5.0478  -43.2653 C   0  0  0  0  0  0  0  0  0  0  0  0
  -34.6384    3.8171  -44.0995 C   0  0  0  0  0  0  0  0  0  0  0  0
  -34.3592    6.2234  -44.0807 O   0  0  0  0  0  0  0  0  0  0  0  0
  -33.0462    6.8196  -44.1021 C   0  0  0  0  0  0  0  0  0  0  0  0
  -32.1187    5.6384  -43.7219 C   0  0  0  0  0  0  0  0  0  0  0  0
  -32.9367    4.9161  -42.7700 O   0  0  0  0  0  0  0  0  0  0  0  0
  -36.4119    2.6606  -45.6484 X   0  0  0  0  0  0  0  0  0  0  0  0
  1  2  1  0  0  0  0
  1  6  1  0  0  0  0
  1 11  1  0  0  0  0
  2  3  1  0  0  0  0
  3  4  1  0  0  0  0
  4  5  1  0  0  0  0
  5  6  1  0  0  0  0
  5  7  1  0  0  0  0
  5 10  1  0  0  0  0
  7  8  1  0  0  0  0
  8  9  1  0  0  0  0
  9 10  1  0  0  0  0
M  END
> <Index>
16926

> <PropertyFieldDistance>
nan

$$$$
10908084
BBcorina  12272117083D 1   1.00000     0.00000 
CORINA 4.3.0 0026  30.10.2019
  9  9  0  0  0  0  0  0  0  0999 V2000
  -38.3031    6.1983  -41.6776 O   0  0  0  0  0  0  0  0  0  0  0  0
  -36.9024    6.2109  -41.9603 C   0  0  0  0  0  0  0  0  0  0  0  0
  -36.4674    4.8265  -42.4451 C   0  0  0  0  0  0  0  0  0  0  0  0
  -37.0084    4.5497  -43.8703 C   0  0  0  0  0  0  0  0  0  0  0  0
  -36.0599    3.5385  -44.4034 N   0  0  0  0  0  0  0  0  0  0  0  0
  -34.7221    3.9484  -43.9242 C   0  0  0  0  0  0  0  0  0  0  0  0
  -34.9348    4.7718  -42.6403 C   0  0  0  0  0  0  0  0  0  0  0  0
  -34.3158    4.1236  -41.5272 O   0  0  0  0  0  0  0  0  0  0  0  0
  -36.1109    3.4912  -46.1120 X   0  0  0  0  0  0  0  0  0  0  0  0
  1  2  1  0  0  0  0
  2  3  1  0  0  0  0
  3  4  1  0  0  0  0
  3  7  1  0  0  0  0
  4  5  1  0  0  0  0
  5  6  1  0  0  0  0
  5  9  1  0  0  0  0
  6  7  1  0  0  0  0
  7  8  1  0  0  0  0
M  END
> <Index>
16927

> <PropertyFieldDistance>
nan

$$$$
13287728
BBcorina  12272117083D 1   1.00000     0.00000 
CORINA 4.3.0 0026  30.10.2019
  7  7  0  0  0  0  0  0  0  0999 V2000
  -36.0258    3.5092  -44.2541 N   0  0  0  0  0  0  0  0  0  0  0  0
  -36.8638    4.6386  -43.8464 C   0  0  0  0  0  0  0  0  0  0  0  0
  -36.7721    4.8672  -42.3398 C   0  0  0  0  0  0  0  0  0  0  0  0
  -35.3843    5.4114  -41.9833 C   0  0  0  0  0  0  0  0  0  0  0  0
  -34.1382    4.1813  -42.4747 S   0  0  0  0  0  0  0  0  0  0  0  0
  -34.5960    3.8482  -44.2026 C   0  0  0  0  0  0  0  0  0  0  0  0
  -36.4670    2.9482  -45.8080 X   0  0  0  0  0  0  0  0  0  0  0  0
  1  2  1  0  0  0  0
  1  6  1  0  0  0  0
  1  7  1  0  0  0  0
  2  3  1  0  0  0  0
  3  4  1  0  0  0  0
  4  5  1  0  0  0  0
  5  6  1  0  0  0  0
M  END
> <Index>
16930

> <PropertyFieldDistance>
nan

$$$$
16509996
BBcorina  12272117083D 1   1.00000     0.00000 
CORINA 4.3.0 0026  30.10.2019
  8  8  0  0  0  0  0  0  0  0999 V2000
  -37.5657    5.3164  -41.4221 C   0  0  0  0  0  0  0  0  0  0  0  0
  -36.6293    5.2502  -42.6303 C   0  0  0  0  0  0  0  0  0  0  0  0
  -36.9723    4.0211  -43.4763 C   0  0  0  0  0  0  0  0  0  0  0  0
  -36.0215    3.9203  -44.5930 N   0  0  0  0  0  0  0  0  0  0  0  0
  -34.6419    3.8204  -44.0951 C   0  0  0  0  0  0  0  0  0  0  0  0
  -34.3222    5.0515  -43.2429 C   0  0  0  0  0  0  0  0  0  0  0  0
  -35.2751    5.1506  -42.1812 O   0  0  0  0  0  0  0  0  0  0  0  0
  -36.4046    2.5974  -45.6065 X   0  0  0  0  0  0  0  0  0  0  0  0
  1  2  1  0  0  0  0
  2  3  1  0  0  0  0
  2  7  1  0  0  0  0
  3  4  1  0  0  0  0
  4  5  1  0  0  0  0
  4  8  1  0  0  0  0
  5  6  1  0  0  0  0
  6  7  1  0  0  0  0
M  END
> <Index>
16931

> <PropertyFieldDistance>
nan

$$$$
12425012
BBcorina  12272117083D 1   1.00000     0.00000 
CORINA 4.3.0 0026  30.10.2019
 10 10  0  0  0  0  0  0  0  0999 V2000
  -35.6101    8.2391  -39.8285 F   0  0  0  0  0  0  0  0  0  0  0  0
  -35.9828    7.6214  -41.0271 C   0  0  0  0  0  0  0  0  0  0  0  0
  -34.9460    6.5589  -41.3971 C   0  0  0  0  0  0  0  0  0  0  0  0
  -35.3535    5.8833  -42.7079 C   0  0  0  0  0  0  0  0  0  0  0  0
  -36.6585    5.1099  -42.5008 C   0  0  0  0  0  0  0  0  0  0  0  0
  -37.0291    4.3869  -43.7977 C   0  0  0  0  0  0  0  0  0  0  0  0
  -35.9480    3.4664  -44.1723 N   0  0  0  0  0  0  0  0  0  0  0  0
  -34.6958    4.1916  -44.4226 C   0  0  0  0  0  0  0  0  0  0  0  0
  -34.2559    4.9088  -43.1442 C   0  0  0  0  0  0  0  0  0  0  0  0
  -36.3899    2.5211  -45.5270 X   0  0  0  0  0  0  0  0  0  0  0  0
  1  2  1  0  0  0  0
  2  3  1  0  0  0  0
  3  4  1  0  0  0  0
  4  5  1  0  0  0  0
  4  9  1  0  0  0  0
  5  6  1  0  0  0  0
  6  7  1  0  0  0  0
  7  8  1  0  0  0  0
  7 10  1  0  0  0  0
  8  9  1  0  0  0  0
M  END
> <Index>
16932

> <PropertyFieldDistance>
nan

$$$$
10970418
BBcorina  12272117083D 1   1.00000     0.00000 
CORINA 4.3.0 0026  30.10.2019
  9  9  0  0  0  0  0  0  0  0999 V2000
  -38.4204    3.9978  -43.8134 C   0  0  0  0  0  0  0  0  0  0  0  0
  -36.9946    4.5502  -43.8666 C   0  0  0  0  0  0  0  0  0  0  0  0
  -36.4718    4.8295  -42.4412 C   0  0  0  0  0  0  0  0  0  0  0  0
  -34.9804    4.4370  -42.4774 C   0  0  0  0  0  0  0  0  0  0  0  0
  -34.7039    3.3076  -41.4828 C   0  0  0  0  0  0  0  0  0  0  0  0
  -34.1018    5.6491  -42.1612 C   0  0  0  0  0  0  0  0  0  0  0  0
  -34.7276    3.9536  -43.9215 C   0  0  0  0  0  0  0  0  0  0  0  0
  -36.0637    3.5298  -44.4137 N   0  0  0  0  0  0  0  0  0  0  0  0
  -36.1098    3.5119  -46.1230 X   0  0  0  0  0  0  0  0  0  0  0  0
  1  2  1  0  0  0  0
  2  3  1  0  0  0  0
  2  8  1  0  0  0  0
  3  4  1  0  0  0  0
  4  5  1  0  0  0  0
  4  6  1  0  0  0  0
  4  7  1  0  0  0  0
  7  8  1  0  0  0  0
  8  9  1  0  0  0  0
M  END
> <Index>
16933

> <PropertyFieldDistance>
nan

$$$$
10975526
BBcorina  12272117083D 1   1.00000     0.00000 
CORINA 4.3.0 0026  30.10.2019
 10 10  0  0  0  0  0  0  0  0999 V2000
  -37.2097    6.9585  -40.9359 C   0  0  0  0  0  0  0  0  0  0  0  0
  -37.6834    6.1406  -42.1390 C   0  0  0  0  0  0  0  0  0  0  0  0
  -37.9173    7.0134  -43.2461 O   0  0  0  0  0  0  0  0  0  0  0  0
  -36.6101    5.1169  -42.5144 C   0  0  0  0  0  0  0  0  0  0  0  0
  -37.0250    4.3873  -43.7948 C   0  0  0  0  0  0  0  0  0  0  0  0
  -35.9555    3.4605  -44.1931 N   0  0  0  0  0  0  0  0  0  0  0  0
  -34.6941    4.1836  -44.4110 C   0  0  0  0  0  0  0  0  0  0  0  0
  -34.3026    4.9152  -43.1245 C   0  0  0  0  0  0  0  0  0  0  0  0
  -35.3668    5.7881  -42.7357 O   0  0  0  0  0  0  0  0  0  0  0  0
  -36.4009    2.5722  -45.5846 X   0  0  0  0  0  0  0  0  0  0  0  0
  1  2  1  0  0  0  0
  2  3  1  0  0  0  0
  2  4  1  0  0  0  0
  4  5  1  0  0  0  0
  4  9  1  0  0  0  0
  5  6  1  0  0  0  0
  6  7  1  0  0  0  0
  6 10  1  0  0  0  0
  7  8  1  0  0  0  0
  8  9  1  0  0  0  0
M  END
> <Index>
16934

> <PropertyFieldDistance>
nan

$$$$
8749004
BBcorina  12272117083D 1   1.00000     0.00000 
CORINA 4.3.0 0026  30.10.2019
 11 12  0  0  0  0  0  0  0  0999 V2000
  -35.9655    3.5161  -44.2482 N   0  0  0  0  0  0  0  0  0  0  0  0
  -37.0138    4.4246  -43.7626 C   0  0  0  0  0  0  0  0  0  0  0  0
  -36.6042    4.9867  -42.3996 C   0  0  0  0  0  0  0  0  0  0  0  0
  -35.3193    5.6905  -42.5207 N   0  0  0  0  0  0  0  0  0  0  0  0
  -34.9275    6.2897  -41.2364 C   0  0  0  0  0  0  0  0  0  0  0  0
  -33.6126    7.0532  -41.4126 C   0  0  0  0  0  0  0  0  0  0  0  0
  -32.6181    6.1657  -41.9190 O   0  0  0  0  0  0  0  0  0  0  0  0
  -32.9611    5.5642  -43.1701 C   0  0  0  0  0  0  0  0  0  0  0  0
  -34.2714    4.7870  -43.0175 C   0  0  0  0  0  0  0  0  0  0  0  0
  -34.6833    4.2216  -44.3789 C   0  0  0  0  0  0  0  0  0  0  0  0
  -36.4202    2.7917  -45.7290 X   0  0  0  0  0  0  0  0  0  0  0  0
  1  2  1  0  0  0  0
  1 10  1  0  0  0  0
  1 11  1  0  0  0  0
  2  3  1  0  0  0  0
  3  4  1  0  0  0  0
  4  5  1  0  0  0  0
  4  9  1  0  0  0  0
  5  6  1  0  0  0  0
  6  7  1  0  0  0  0
  7  8  1  0  0  0  0
  8  9  1  0  0  0  0
  9 10  1  0  0  0  0
M  END
> <Index>
16936

> <PropertyFieldDistance>
nan

$$$$
9285796
BBcorina  12272117083D 1   1.00000     0.00000 
CORINA 4.3.0 0026  30.10.2019
  8  8  0  0  0  0  0  0  0  0999 V2000
  -34.1037    5.6506  -42.1620 C   0  0  0  0  0  0  0  0  0  0  0  0
  -34.9804    4.4370  -42.4772 C   0  0  0  0  0  0  0  0  0  0  0  0
  -34.7222    3.3822  -41.5485 O   0  0  0  0  0  0  0  0  0  0  0  0
  -36.4718    4.8295  -42.4412 C   0  0  0  0  0  0  0  0  0  0  0  0
  -36.9946    4.5502  -43.8666 C   0  0  0  0  0  0  0  0  0  0  0  0
  -36.0637    3.5299  -44.4136 N   0  0  0  0  0  0  0  0  0  0  0  0
  -34.7276    3.9536  -43.9215 C   0  0  0  0  0  0  0  0  0  0  0  0
  -36.1097    3.5119  -46.1230 X   0  0  0  0  0  0  0  0  0  0  0  0
  1  2  1  0  0  0  0
  2  3  1  0  0  0  0
  2  4  1  0  0  0  0
  2  7  1  0  0  0  0
  4  5  1  0  0  0  0
  5  6  1  0  0  0  0
  6  7  1  0  0  0  0
  6  8  1  0  0  0  0
M  END
> <Index>
16937

> <PropertyFieldDistance>
nan

$$$$
13022840
BBcorina  12272117083D 1   1.00000     0.00000 
CORINA 4.3.0 0026  30.10.2019
  8  8  0  0  0  0  0  0  0  0999 V2000
  -36.0994    3.9796  -44.4496 N   0  0  0  0  0  0  0  0  0  0  0  0
  -36.6641    3.9107  -43.1111 C   0  0  0  0  0  0  0  0  0  0  0  0
  -37.2320    5.2962  -42.8500 C   0  0  0  0  0  0  0  0  0  0  0  0
  -36.2079    6.3631  -41.9056 S   0  0  0  0  0  0  0  0  0  0  0  0
  -34.5771    6.5671  -43.1830 S   0  0  0  0  0  0  0  0  0  0  0  0
  -33.9556    4.8755  -43.2793 C   0  0  0  0  0  0  0  0  0  0  0  0
  -34.6361    4.0016  -44.3477 C   0  0  0  0  0  0  0  0  0  0  0  0
  -36.6273    2.6656  -45.4083 X   0  0  0  0  0  0  0  0  0  0  0  0
  1  2  1  0  0  0  0
  1  7  1  0  0  0  0
  1  8  1  0  0  0  0
  2  3  1  0  0  0  0
  3  4  1  0  0  0  0
  4  5  1  0  0  0  0
  5  6  1  0  0  0  0
  6  7  1  0  0  0  0
M  END
> <Index>
16938

> <PropertyFieldDistance>
nan

$$$$
6287566
BBcorina  12272117083D 1   1.00000     0.00000 
CORINA 4.3.0 0026  30.10.2019
  9  9  0  0  0  0  0  0  0  0999 V2000
  -37.8247    6.5092  -40.6781 C   0  0  0  0  0  0  0  0  0  0  0  0
  -37.8804    5.1976  -41.4640 C   0  0  0  0  0  0  0  0  0  0  0  0
  -36.8441    5.2329  -42.5892 C   0  0  0  0  0  0  0  0  0  0  0  0
  -36.9746    3.9710  -43.4489 C   0  0  0  0  0  0  0  0  0  0  0  0
  -36.0086    4.0161  -44.5488 N   0  0  0  0  0  0  0  0  0  0  0  0
  -34.6303    3.8028  -44.1014 C   0  0  0  0  0  0  0  0  0  0  0  0
  -34.1296    5.0408  -43.3494 C   0  0  0  0  0  0  0  0  0  0  0  0
  -35.1709    5.2825  -41.8777 S   0  0  0  0  0  0  0  0  0  0  0  0
  -36.4318    2.9073  -45.7799 X   0  0  0  0  0  0  0  0  0  0  0  0
  1  2  1  0  0  0  0
  2  3  1  0  0  0  0
  3  4  1  0  0  0  0
  3  8  1  0  0  0  0
  4  5  1  0  0  0  0
  5  6  1  0  0  0  0
  5  9  1  0  0  0  0
  6  7  1  0  0  0  0
  7  8  1  0  0  0  0
M  END
> <Index>
16939

> <PropertyFieldDistance>
nan

$$$$
17850692
BBcorina  12272117083D 1   1.00000     0.00000 
CORINA 4.3.0 0026  30.10.2019
 11 12  0  0  0  0  0  0  0  0999 V2000
  -38.1178    3.2918  -43.3215 C   0  0  0  0  0  0  0  0  0  0  0  0
  -37.0966    4.3499  -43.7442 C   0  0  0  0  0  0  0  0  0  0  0  0
  -36.4032    4.9302  -42.5182 C   0  0  0  0  0  0  0  0  0  0  0  0
  -37.1616    4.8970  -41.2077 C   0  0  0  0  0  0  0  0  0  0  0  0
  -36.2403    5.5075  -40.1376 C   0  0  0  0  0  0  0  0  0  0  0  0
  -34.9130    4.7616  -40.0458 C   0  0  0  0  0  0  0  0  0  0  0  0
  -34.2155    4.6719  -41.4138 C   0  0  0  0  0  0  0  0  0  0  0  0
  -35.1795    3.9824  -42.3594 C   0  0  0  0  0  0  0  0  0  0  0  0
  -34.7359    3.8553  -43.8190 C   0  0  0  0  0  0  0  0  0  0  0  0
  -36.0221    3.7277  -44.5616 N   0  0  0  0  0  0  0  0  0  0  0  0
  -35.9171    4.4662  -46.1002 X   0  0  0  0  0  0  0  0  0  0  0  0
  1  2  1  0  0  0  0
  2  3  1  0  0  0  0
  2 10  1  0  0  0  0
  3  4  1  0  0  0  0
  3  8  1  0  0  0  0
  4  5  1  0  0  0  0
  5  6  1  0  0  0  0
  6  7  1  0  0  0  0
  7  8  1  0  0  0  0
  8  9  1  0  0  0  0
  9 10  1  0  0  0  0
 10 11  1  0  0  0  0
M  END
> <Index>
16940

> <PropertyFieldDistance>
nan

$$$$
14424182
BBcorina  12272117083D 1   1.00000     0.00000 
CORINA 4.3.0 0026  30.10.2019
 16 17  0  0  0  0  0  0  0  0999 V2000
  -37.2936   -1.5939  -46.7499 Cl  0  0  0  0  0  0  0  0  0  0  0  0
  -36.9243   -0.0508  -46.0456 C   0  0  0  0  0  0  0  0  0  0  0  0
  -37.9047    0.9215  -45.9600 C   0  0  0  0  0  0  0  0  0  0  0  0
  -37.6138    2.1504  -45.4001 C   0  0  0  0  0  0  0  0  0  0  0  0
  -36.3358    2.4100  -44.9225 C   0  0  0  0  0  0  0  0  0  0  0  0
  -35.3511    1.4346  -45.0144 C   0  0  0  0  0  0  0  0  0  0  0  0
  -35.6485    0.2050  -45.5707 C   0  0  0  0  0  0  0  0  0  0  0  0
  -34.4209   -1.0175  -45.6798 Cl  0  0  0  0  0  0  0  0  0  0  0  0
  -36.0394    3.6524  -44.3558 N   0  0  0  0  0  0  0  0  0  0  0  0
  -36.9539    3.9570  -43.2478 C   0  0  0  0  0  0  0  0  0  0  0  0
  -36.6956    5.3802  -42.7480 C   0  0  0  0  0  0  0  0  0  0  0  0
  -35.2419    5.4961  -42.2812 C   0  0  0  0  0  0  0  0  0  0  0  0
  -34.3114    5.1270  -43.4396 C   0  0  0  0  0  0  0  0  0  0  0  0
  -34.6385    3.7111  -43.9194 C   0  0  0  0  0  0  0  0  0  0  0  0
  -32.9160    5.1801  -42.9834 N   0  0  0  0  0  0  0  0  0  0  0  0
  -32.6239    4.0134  -41.7678 X   0  0  0  0  0  0  0  0  0  0  0  0
  1  2  1  0  0  0  0
  2  3  2  0  0  0  0
  2  7  1  0  0  0  0
  3  4  1  0  0  0  0
  4  5  2  0  0  0  0
  5  6  1  0  0  0  0
  5  9  1  0  0  0  0
  6  7  2  0  0  0  0
  7  8  1  0  0  0  0
  9 10  1  0  0  0  0
  9 14  1  0  0  0  0
 10 11  1  0  0  0  0
 11 12  1  0  0  0  0
 12 13  1  0  0  0  0
 13 14  1  0  0  0  0
 13 15  1  0  0  0  0
 15 16  1  0  0  0  0
M  END
> <Index>
16942

> <PropertyFieldDistance>
nan

$$$$
7967774
BBcorina  12272117083D 1   1.00000     0.00000 
CORINA 4.3.0 0026  30.10.2019
 16 17  0  0  0  0  0  0  0  0999 V2000
  -33.3001    8.3828  -40.8376 C   0  0  0  0  0  0  0  0  0  0  0  0
  -33.6055    7.0147  -41.2771 N   0  0  0  0  0  0  0  0  0  0  0  0
  -34.9615    6.9317  -41.8360 C   0  0  0  0  0  0  0  0  0  0  0  0
  -35.2423    5.4952  -42.2815 C   0  0  0  0  0  0  0  0  0  0  0  0
  -36.6960    5.3793  -42.7485 C   0  0  0  0  0  0  0  0  0  0  0  0
  -36.9541    3.9560  -43.2482 C   0  0  0  0  0  0  0  0  0  0  0  0
  -36.0396    3.6516  -44.3562 N   0  0  0  0  0  0  0  0  0  0  0  0
  -34.6388    3.7104  -43.9198 C   0  0  0  0  0  0  0  0  0  0  0  0
  -34.3115    5.1262  -43.4399 C   0  0  0  0  0  0  0  0  0  0  0  0
  -36.3347    2.4142  -44.9206 C   0  0  0  0  0  0  0  0  0  0  0  0
  -35.5903    1.9207  -45.9920 C   0  0  0  0  0  0  0  0  0  0  0  0
  -35.9146    0.6900  -46.5226 C   0  0  0  0  0  0  0  0  0  0  0  0
  -36.9136   -0.0177  -46.0291 N   0  0  0  0  0  0  0  0  0  0  0  0
  -37.6413    0.4144  -45.0163 C   0  0  0  0  0  0  0  0  0  0  0  0
  -37.3822    1.6351  -44.4295 C   0  0  0  0  0  0  0  0  0  0  0  0
  -33.4009    5.8998  -39.9969 X   0  0  0  0  0  0  0  0  0  0  0  0
  1  2  1  0  0  0  0
  2  3  1  0  0  0  0
  2 16  1  0  0  0  0
  3  4  1  0  0  0  0
  4  5  1  0  0  0  0
  4  9  1  0  0  0  0
  5  6  1  0  0  0  0
  6  7  1  0  0  0  0
  7  8  1  0  0  0  0
  7 10  1  0  0  0  0
  8  9  1  0  0  0  0
 10 11  2  0  0  0  0
 10 15  1  0  0  0  0
 11 12  1  0  0  0  0
 12 13  2  0  0  0  0
 13 14  1  0  0  0  0
 14 15  2  0  0  0  0
M  END
> <Index>
16952

> <PropertyFieldDistance>
nan

$$$$
8265624
BBcorina  12272117083D 1   1.00000     0.00000 
CORINA 4.3.0 0026  30.10.2019
 16 17  0  0  0  0  0  0  0  0999 V2000
  -35.6059    8.8961  -40.5271 N   0  0  0  0  0  0  0  0  0  0  0  0
  -36.0159    8.0099  -41.6246 C   0  0  0  0  0  0  0  0  0  0  0  0
  -34.9584    6.9223  -41.8240 C   0  0  0  0  0  0  0  0  0  0  0  0
  -35.3854    5.9993  -42.9670 C   0  0  0  0  0  0  0  0  0  0  0  0
  -36.6585    5.2475  -42.5694 C   0  0  0  0  0  0  0  0  0  0  0  0
  -37.0466    4.2816  -43.6911 C   0  0  0  0  0  0  0  0  0  0  0  0
  -35.9495    3.3336  -43.9235 N   0  0  0  0  0  0  0  0  0  0  0  0
  -34.7290    4.0285  -44.3525 C   0  0  0  0  0  0  0  0  0  0  0  0
  -34.2720    4.9870  -43.2504 C   0  0  0  0  0  0  0  0  0  0  0  0
  -36.3192    2.3595  -44.8462 C   0  0  0  0  0  0  0  0  0  0  0  0
  -35.4290    1.3523  -45.2188 C   0  0  0  0  0  0  0  0  0  0  0  0
  -35.8342    0.4060  -46.1363 C   0  0  0  0  0  0  0  0  0  0  0  0
  -37.0455    0.4454  -46.6591 N   0  0  0  0  0  0  0  0  0  0  0  0
  -37.9165    1.3818  -46.3323 C   0  0  0  0  0  0  0  0  0  0  0  0
  -37.5913    2.3615  -45.4179 C   0  0  0  0  0  0  0  0  0  0  0  0
  -36.7628   10.1290  -40.2703 X   0  0  0  0  0  0  0  0  0  0  0  0
  1  2  1  0  0  0  0
  1 16  1  0  0  0  0
  2  3  1  0  0  0  0
  3  4  1  0  0  0  0
  4  5  1  0  0  0  0
  4  9  1  0  0  0  0
  5  6  1  0  0  0  0
  6  7  1  0  0  0  0
  7  8  1  0  0  0  0
  7 10  1  0  0  0  0
  8  9  1  0  0  0  0
 10 11  2  0  0  0  0
 10 15  1  0  0  0  0
 11 12  1  0  0  0  0
 12 13  2  0  0  0  0
 13 14  1  0  0  0  0
 14 15  2  0  0  0  0
M  END
> <Index>
16953

> <PropertyFieldDistance>
nan

$$$$
12103046
BBcorina  12272117083D 1   1.00000     0.00000 
CORINA 4.3.0 0026  30.10.2019
 11 11  0  0  0  0  0  0  0  0999 V2000
  -38.2907    4.4708  -44.3479 C   0  0  0  0  0  0  0  0  0  0  0  0
  -37.0541    4.0843  -43.5340 C   0  0  0  0  0  0  0  0  0  0  0  0
  -36.6373    5.2651  -42.6562 C   0  0  0  0  0  0  0  0  0  0  0  0
  -35.2763    4.9505  -42.0238 C   0  0  0  0  0  0  0  0  0  0  0  0
  -34.9206    6.0324  -41.0021 C   0  0  0  0  0  0  0  0  0  0  0  0
  -33.6759    5.6655  -40.3136 N   0  0  0  0  0  0  0  0  0  0  0  0
  -34.2221    4.9229  -43.1333 C   0  0  0  0  0  0  0  0  0  0  0  0
  -34.7007    4.0687  -44.2718 C   0  0  0  0  0  0  0  0  0  0  0  0
  -33.8835    3.6734  -45.0760 O   0  0  0  0  0  0  0  0  0  0  0  0
  -35.9731    3.7227  -44.4425 N   0  0  0  0  0  0  0  0  0  0  0  0
  -33.2412    6.8508  -39.1603 X   0  0  0  0  0  0  0  0  0  0  0  0
  1  2  1  0  0  0  0
  2  3  1  0  0  0  0
  2 10  1  0  0  0  0
  3  4  1  0  0  0  0
  4  5  1  0  0  0  0
  4  7  1  0  0  0  0
  5  6  1  0  0  0  0
  6 11  1  0  0  0  0
  7  8  1  0  0  0  0
  8  9  2  0  0  0  0
  8 10  1  0  0  0  0
M  END
> <Index>
16971

> <PropertyFieldDistance>
nan

$$$$
13575412
BBcorina  12272117083D 1   1.00000     0.00000 
CORINA 4.3.0 0026  30.10.2019
 10 11  0  0  0  0  0  0  0  0999 V2000
  -36.0190    3.9489  -44.5850 N   0  0  0  0  0  0  0  0  0  0  0  0
  -36.9679    4.0047  -43.4652 C   0  0  0  0  0  0  0  0  0  0  0  0
  -36.6912    5.2460  -42.6196 C   0  0  0  0  0  0  0  0  0  0  0  0
  -36.9697    6.5072  -43.4393 C   0  0  0  0  0  0  0  0  0  0  0  0
  -35.8996    6.5056  -44.9050 S   0  0  0  0  0  0  0  0  0  0  0  0
  -34.2502    6.2864  -44.1737 C   0  0  0  0  0  0  0  0  0  0  0  0
  -34.2678    5.0489  -43.2746 C   0  0  0  0  0  0  0  0  0  0  0  0
  -35.2496    5.2422  -42.1249 C   0  0  0  0  0  0  0  0  0  0  0  0
  -34.6413    3.8152  -44.0933 C   0  0  0  0  0  0  0  0  0  0  0  0
  -36.4124    2.6777  -45.6591 X   0  0  0  0  0  0  0  0  0  0  0  0
  1  2  1  0  0  0  0
  1  9  1  0  0  0  0
  1 10  1  0  0  0  0
  2  3  1  0  0  0  0
  3  4  1  0  0  0  0
  3  8  1  0  0  0  0
  4  5  1  0  0  0  0
  5  6  1  0  0  0  0
  6  7  1  0  0  0  0
  7  8  1  0  0  0  0
  7  9  1  0  0  0  0
M  END
> <Index>
16983

> <PropertyFieldDistance>
nan

$$$$
13579010
BBcorina  12272117083D 1   1.00000     0.00000 
CORINA 4.3.0 0026  30.10.2019
 11 12  0  0  0  0  0  0  0  0999 V2000
  -38.9788    3.7191  -44.0221 N   0  0  0  0  0  0  0  0  0  0  0  0
  -38.1648    4.8554  -44.4740 C   0  0  0  0  0  0  0  0  0  0  0  0
  -36.7588    4.7432  -43.8812 C   0  0  0  0  0  0  0  0  0  0  0  0
  -36.6496    4.7725  -42.3242 C   0  0  0  0  0  0  0  0  0  0  0  0
  -35.1598    5.1007  -42.0617 C   0  0  0  0  0  0  0  0  0  0  0  0
  -34.5485    5.2154  -43.4944 C   0  0  0  0  0  0  0  0  0  0  0  0
  -35.7471    5.8833  -44.2626 C   0  0  0  0  0  0  0  0  0  0  0  0
  -35.9722    3.5420  -44.2821 N   0  0  0  0  0  0  0  0  0  0  0  0
  -34.6581    3.7904  -44.0558 C   0  0  0  0  0  0  0  0  0  0  0  0
  -33.7381    3.0270  -44.2601 O   0  0  0  0  0  0  0  0  0  0  0  0
  -40.5618    3.8058  -44.6632 X   0  0  0  0  0  0  0  0  0  0  0  0
  1  2  1  0  0  0  0
  1 11  1  0  0  0  0
  2  3  1  0  0  0  0
  3  4  1  0  0  0  0
  3  7  1  0  0  0  0
  3  8  1  0  0  0  0
  4  5  1  0  0  0  0
  5  6  1  0  0  0  0
  6  7  1  0  0  0  0
  6  9  1  0  0  0  0
  8  9  1  0  0  0  0
  9 10  2  0  0  0  0
M  END
> <Index>
16987

> <PropertyFieldDistance>
nan

$$$$
12808064
BBcorina  12272117083D 1   1.00000     0.00000 
CORINA 4.3.0 0026  30.10.2019
 12 12  0  0  0  0  0  0  0  0999 V2000
  -35.5684    2.5388  -46.9608 F   0  0  0  0  0  0  0  0  0  0  0  0
  -35.6667    1.6884  -45.8543 C   0  0  0  0  0  0  0  0  0  0  0  0
  -34.4079    1.5489  -45.2601 F   0  0  0  0  0  0  0  0  0  0  0  0
  -36.6464    2.2821  -44.8402 C   0  0  0  0  0  0  0  0  0  0  0  0
  -36.2378    3.6539  -44.5098 N   0  0  0  0  0  0  0  0  0  0  0  0
  -37.1109    4.2296  -43.4638 C   0  0  0  0  0  0  0  0  0  0  0  0
  -36.2312    5.1503  -42.5977 C   0  0  0  0  0  0  0  0  0  0  0  0
  -34.8113    5.0333  -43.1975 C   0  0  0  0  0  0  0  0  0  0  0  0
  -33.7564    5.0026  -42.0897 C   0  0  0  0  0  0  0  0  0  0  0  0
  -33.6928    6.3173  -41.4376 N   0  0  0  0  0  0  0  0  0  0  0  0
  -34.8628    3.6792  -43.9485 C   0  0  0  0  0  0  0  0  0  0  0  0
  -32.5233    6.3266  -40.1899 X   0  0  0  0  0  0  0  0  0  0  0  0
  1  2  1  0  0  0  0
  2  3  1  0  0  0  0
  2  4  1  0  0  0  0
  4  5  1  0  0  0  0
  5  6  1  0  0  0  0
  5 11  1  0  0  0  0
  6  7  1  0  0  0  0
  7  8  1  0  0  0  0
  8  9  1  0  0  0  0
  8 11  1  0  0  0  0
  9 10  1  0  0  0  0
 10 12  1  0  0  0  0
M  END
> <Index>
17000

> <PropertyFieldDistance>
nan

$$$$
12910932
BBcorina  12272117083D 1   1.00000     0.00000 
CORINA 4.3.0 0026  30.10.2019
 12 13  0  0  0  0  0  0  0  0999 V2000
  -35.1044    3.9407  -41.1839 C   0  0  0  0  0  0  0  0  0  0  0  0
  -35.2462    5.1676  -42.0870 C   0  0  0  0  0  0  0  0  0  0  0  0
  -36.6793    5.2476  -42.6202 C   0  0  0  0  0  0  0  0  0  0  0  0
  -36.9723    4.0087  -43.4694 C   0  0  0  0  0  0  0  0  0  0  0  0
  -36.0191    3.9414  -44.5845 N   0  0  0  0  0  0  0  0  0  0  0  0
  -34.6396    3.8164  -44.0970 C   0  0  0  0  0  0  0  0  0  0  0  0
  -34.2770    5.0496  -43.2665 C   0  0  0  0  0  0  0  0  0  0  0  0
  -34.9400    6.3812  -41.3179 N   0  0  0  0  0  0  0  0  0  0  0  0
  -35.1965    7.5930  -42.1185 C   0  0  0  0  0  0  0  0  0  0  0  0
  -35.8056    8.2278  -40.8605 C   0  0  0  0  0  0  0  0  0  0  0  0
  -36.0806    6.7696  -40.4674 C   0  0  0  0  0  0  0  0  0  0  0  0
  -36.4110    2.6621  -45.6494 X   0  0  0  0  0  0  0  0  0  0  0  0
  1  2  1  0  0  0  0
  2  3  1  0  0  0  0
  2  7  1  0  0  0  0
  2  8  1  0  0  0  0
  3  4  1  0  0  0  0
  4  5  1  0  0  0  0
  5  6  1  0  0  0  0
  5 12  1  0  0  0  0
  6  7  1  0  0  0  0
  8  9  1  0  0  0  0
  8 11  1  0  0  0  0
  9 10  1  0  0  0  0
 10 11  1  0  0  0  0
M  END
> <Index>
17007

> <PropertyFieldDistance>
nan

$$$$
503992
BBcorina  12272117083D 1   1.00000     0.00000 
CORINA 4.3.0 0026  30.10.2019
 11 12  0  0  0  0  0  0  0  0999 V2000
  -35.9475    3.4669  -44.1711 N   0  0  0  0  0  0  0  0  0  0  0  0
  -37.0295    4.3868  -43.7979 C   0  0  0  0  0  0  0  0  0  0  0  0
  -36.6612    5.1097  -42.5000 C   0  0  0  0  0  0  0  0  0  0  0  0
  -35.3530    5.8771  -42.7041 C   0  0  0  0  0  0  0  0  0  0  0  0
  -34.2535    4.9085  -43.1453 C   0  0  0  0  0  0  0  0  0  0  0  0
  -34.6957    4.1918  -44.4234 C   0  0  0  0  0  0  0  0  0  0  0  0
  -35.5370    6.8856  -43.7051 O   0  0  0  0  0  0  0  0  0  0  0  0
  -35.2504    8.1573  -43.0884 C   0  0  0  0  0  0  0  0  0  0  0  0
  -34.3755    7.7672  -41.8708 C   0  0  0  0  0  0  0  0  0  0  0  0
  -34.9700    6.5084  -41.4720 O   0  0  0  0  0  0  0  0  0  0  0  0
  -36.3891    2.5177  -45.5232 X   0  0  0  0  0  0  0  0  0  0  0  0
  1  2  1  0  0  0  0
  1  6  1  0  0  0  0
  1 11  1  0  0  0  0
  2  3  1  0  0  0  0
  3  4  1  0  0  0  0
  4  5  1  0  0  0  0
  4  7  1  0  0  0  0
  4 10  1  0  0  0  0
  5  6  1  0  0  0  0
  7  8  1  0  0  0  0
  8  9  1  0  0  0  0
  9 10  1  0  0  0  0
M  END
> <Index>
17015

> <PropertyFieldDistance>
nan

$$$$
848246
BBcorina  12272117083D 1   1.00000     0.00000 
CORINA 4.3.0 0026  30.10.2019
  7  7  0  0  0  0  0  0  0  0999 V2000
  -35.9206    3.4918  -44.0974 N   0  0  0  0  0  0  0  0  0  0  0  0
  -37.0425    4.3877  -43.8072 C   0  0  0  0  0  0  0  0  0  0  0  0
  -36.8194    5.0817  -42.4592 C   0  0  0  0  0  0  0  0  0  0  0  0
  -35.3074    6.0869  -42.5706 S   0  0  0  0  0  0  0  0  0  0  0  0
  -34.1039    4.8846  -43.2150 C   0  0  0  0  0  0  0  0  0  0  0  0
  -34.7009    4.2177  -44.4589 C   0  0  0  0  0  0  0  0  0  0  0  0
  -36.3394    2.3570  -45.3060 X   0  0  0  0  0  0  0  0  0  0  0  0
  1  2  1  0  0  0  0
  1  6  1  0  0  0  0
  1  7  1  0  0  0  0
  2  3  1  0  0  0  0
  3  4  1  0  0  0  0
  4  5  1  0  0  0  0
  5  6  1  0  0  0  0
M  END
> <Index>
17020

> <PropertyFieldDistance>
nan

$$$$
5826402
BBcorina  12272117083D 1   1.00000     0.00000 
CORINA 4.3.0 0026  30.10.2019
  9 10  0  0  0  0  0  0  0  0999 V2000
  -35.4562    5.1618  -40.1336 C   0  0  0  0  0  0  0  0  0  0  0  0
  -35.6879    4.3510  -41.4103 C   0  0  0  0  0  0  0  0  0  0  0  0
  -35.9374    2.8557  -41.2045 C   0  0  0  0  0  0  0  0  0  0  0  0
  -36.4313    5.0387  -42.5571 C   0  0  0  0  0  0  0  0  0  0  0  0
  -37.0719    4.1506  -43.6453 C   0  0  0  0  0  0  0  0  0  0  0  0
  -35.9864    3.9297  -44.6351 N   0  0  0  0  0  0  0  0  0  0  0  0
  -34.7681    3.7441  -43.8055 C   0  0  0  0  0  0  0  0  0  0  0  0
  -34.9157    4.7713  -42.6624 C   0  0  0  0  0  0  0  0  0  0  0  0
  -36.2971    2.5430  -45.5863 X   0  0  0  0  0  0  0  0  0  0  0  0
  1  2  1  0  0  0  0
  2  3  1  0  0  0  0
  2  4  1  0  0  0  0
  2  8  1  0  0  0  0
  4  5  1  0  0  0  0
  4  8  1  0  0  0  0
  5  6  1  0  0  0  0
  6  7  1  0  0  0  0
  6  9  1  0  0  0  0
  7  8  1  0  0  0  0
M  END
> <Index>
17026

> <PropertyFieldDistance>
nan

$$$$
12090130
BBcorina  12272117083D 1   1.00000     0.00000 
CORINA 4.3.0 0026  30.10.2019
 11 12  0  0  0  0  0  0  0  0999 V2000
  -32.0437    3.2394  -45.1031 Br  0  0  0  0  0  0  0  0  0  0  0  0
  -33.9327    3.2810  -45.0269 C   0  0  0  0  0  0  0  0  0  0  0  0
  -34.8090    2.5781  -45.8653 C   0  0  0  0  0  0  0  0  0  0  0  0
  -36.0379    2.8609  -45.5056 N   0  0  0  0  0  0  0  0  0  0  0  0
  -35.9813    3.7471  -44.4314 N   0  0  0  0  0  0  0  0  0  0  0  0
  -37.0920    4.3455  -43.6839 C   0  0  0  0  0  0  0  0  0  0  0  0
  -36.5388    4.9007  -42.3654 C   0  0  0  0  0  0  0  0  0  0  0  0
  -35.3581    5.7330  -42.6336 N   0  0  0  0  0  0  0  0  0  0  0  0
  -34.2112    4.9094  -43.0555 C   0  0  0  0  0  0  0  0  0  0  0  0
  -34.6761    3.9907  -44.1578 C   0  0  0  0  0  0  0  0  0  0  0  0
  -35.7090    6.9365  -43.7966 X   0  0  0  0  0  0  0  0  0  0  0  0
  1  2  1  0  0  0  0
  2  3  1  0  0  0  0
  2 10  2  0  0  0  0
  3  4  2  0  0  0  0
  4  5  1  0  0  0  0
  5  6  1  0  0  0  0
  5 10  1  0  0  0  0
  6  7  1  0  0  0  0
  7  8  1  0  0  0  0
  8  9  1  0  0  0  0
  8 11  1  0  0  0  0
  9 10  1  0  0  0  0
M  END
> <Index>
17035

> <PropertyFieldDistance>
nan

$$$$
12347120
BBcorina  12272117083D 1   1.00000     0.00000 
CORINA 4.3.0 0026  30.10.2019
 12 13  0  0  0  0  0  0  0  0999 V2000
  -33.9992    5.1074  -41.9139 N   0  0  0  0  0  0  0  0  0  0  0  0
  -34.9179    5.1550  -43.0592 C   0  0  0  0  0  0  0  0  0  0  0  0
  -36.3861    5.1795  -42.5745 C   0  0  0  0  0  0  0  0  0  0  0  0
  -37.0871    4.3197  -43.6496 C   0  0  0  0  0  0  0  0  0  0  0  0
  -36.0451    3.4352  -44.1842 N   0  0  0  0  0  0  0  0  0  0  0  0
  -36.3098    2.2196  -44.9579 C   0  0  0  0  0  0  0  0  0  0  0  0
  -35.7045    2.2450  -46.3713 C   0  0  0  0  0  0  0  0  0  0  0  0
  -35.3382    0.7671  -46.1558 C   0  0  0  0  0  0  0  0  0  0  0  0
  -35.3385    1.0683  -44.6479 C   0  0  0  0  0  0  0  0  0  0  0  0
  -34.8169    3.8833  -43.8723 C   0  0  0  0  0  0  0  0  0  0  0  0
  -33.7787    3.3459  -44.1952 O   0  0  0  0  0  0  0  0  0  0  0  0
  -34.1971    3.6574  -41.0294 X   0  0  0  0  0  0  0  0  0  0  0  0
  1  2  1  0  0  0  0
  1 12  1  0  0  0  0
  2  3  1  0  0  0  0
  2 10  1  0  0  0  0
  3  4  1  0  0  0  0
  4  5  1  0  0  0  0
  5  6  1  0  0  0  0
  5 10  1  0  0  0  0
  6  7  1  0  0  0  0
  6  9  1  0  0  0  0
  7  8  1  0  0  0  0
  8  9  1  0  0  0  0
 10 11  2  0  0  0  0
M  END
> <Index>
17053

> <PropertyFieldDistance>
nan

$$$$
12345368
BBcorina  12272117083D 1   1.00000     0.00000 
CORINA 4.3.0 0026  30.10.2019
 10 11  0  0  0  0  0  0  0  0999 V2000
  -36.0173    3.5926  -44.4913 N   0  0  0  0  0  0  0  0  0  0  0  0
  -36.3933    2.1751  -44.5752 C   0  0  0  0  0  0  0  0  0  0  0  0
  -36.1059    1.6538  -45.9847 C   0  0  0  0  0  0  0  0  0  0  0  0
  -34.5791    1.5976  -46.2451 C   0  0  0  0  0  0  0  0  0  0  0  0
  -34.4601    0.5316  -47.3631 C   0  0  0  0  0  0  0  0  0  0  0  0
  -35.5223   -0.5261  -46.9933 C   0  0  0  0  0  0  0  0  0  0  0  0
  -36.5628    0.1909  -46.1221 C   0  0  0  0  0  0  0  0  0  0  0  0
  -37.2459   -0.5262  -44.9614 C   0  0  0  0  0  0  0  0  0  0  0  0
  -38.0445   -0.1599  -46.2151 C   0  0  0  0  0  0  0  0  0  0  0  0
  -36.3230    4.2163  -42.9287 X   0  0  0  0  0  0  0  0  0  0  0  0
  1  2  1  0  0  0  0
  1 10  1  0  0  0  0
  2  3  1  0  0  0  0
  3  4  1  0  0  0  0
  3  7  1  0  0  0  0
  4  5  1  0  0  0  0
  5  6  1  0  0  0  0
  6  7  1  0  0  0  0
  7  8  1  0  0  0  0
  7  9  1  0  0  0  0
  8  9  1  0  0  0  0
M  END
> <Index>
17055

> <PropertyFieldDistance>
nan

$$$$
12908570
BBcorina  12272117083D 1   1.00000     0.00000 
CORINA 4.3.0 0026  30.10.2019
 11 11  0  0  0  0  0  0  0  0999 V2000
  -38.0156    6.5428  -39.3888 O   0  0  0  0  0  0  0  0  0  0  0  0
  -37.2214    6.5444  -40.5768 C   0  0  0  0  0  0  0  0  0  0  0  0
  -37.5650    5.3159  -41.4216 C   0  0  0  0  0  0  0  0  0  0  0  0
  -38.9180    5.4103  -41.8713 O   0  0  0  0  0  0  0  0  0  0  0  0
  -36.6293    5.2502  -42.6303 C   0  0  0  0  0  0  0  0  0  0  0  0
  -36.9724    4.0211  -43.4763 C   0  0  0  0  0  0  0  0  0  0  0  0
  -36.0215    3.9204  -44.5930 N   0  0  0  0  0  0  0  0  0  0  0  0
  -34.6419    3.8204  -44.0951 C   0  0  0  0  0  0  0  0  0  0  0  0
  -34.3222    5.0515  -43.2430 C   0  0  0  0  0  0  0  0  0  0  0  0
  -35.2751    5.1516  -42.1812 O   0  0  0  0  0  0  0  0  0  0  0  0
  -36.4047    2.5974  -45.6065 X   0  0  0  0  0  0  0  0  0  0  0  0
  1  2  1  0  0  0  0
  2  3  1  0  0  0  0
  3  4  1  0  0  0  0
  3  5  1  0  0  0  0
  5  6  1  0  0  0  0
  5 10  1  0  0  0  0
  6  7  1  0  0  0  0
  7  8  1  0  0  0  0
  7 11  1  0  0  0  0
  8  9  1  0  0  0  0
  9 10  1  0  0  0  0
M  END
> <Index>
17066

> <PropertyFieldDistance>
nan

$$$$
12890666
BBcorina  12272117083D 1   1.00000     0.00000 
CORINA 4.3.0 0026  30.10.2019
 13 14  0  0  0  0  0  0  0  0999 V2000
  -36.0194    3.9412  -44.5845 N   0  0  0  0  0  0  0  0  0  0  0  0
  -36.9724    4.0084  -43.4693 C   0  0  0  0  0  0  0  0  0  0  0  0
  -36.6796    5.2477  -42.6205 C   0  0  0  0  0  0  0  0  0  0  0  0
  -35.2463    5.1684  -42.0875 C   0  0  0  0  0  0  0  0  0  0  0  0
  -34.9273    6.4335  -41.2883 C   0  0  0  0  0  0  0  0  0  0  0  0
  -33.5615    6.3026  -40.6649 C   0  0  0  0  0  0  0  0  0  0  0  0
  -33.1461    5.3333  -39.8865 N   0  0  0  0  0  0  0  0  0  0  0  0
  -31.9244    5.5806  -39.5605 N   0  0  0  0  0  0  0  0  0  0  0  0
  -31.5497    6.6825  -40.1106 N   0  0  0  0  0  0  0  0  0  0  0  0
  -32.5312    7.1582  -40.7998 N   0  0  0  0  0  0  0  0  0  0  0  0
  -34.2763    5.0495  -43.2662 C   0  0  0  0  0  0  0  0  0  0  0  0
  -34.6397    3.8168  -44.0973 C   0  0  0  0  0  0  0  0  0  0  0  0
  -36.4111    2.6614  -45.6489 X   0  0  0  0  0  0  0  0  0  0  0  0
  1  2  1  0  0  0  0
  1 12  1  0  0  0  0
  1 13  1  0  0  0  0
  2  3  1  0  0  0  0
  3  4  1  0  0  0  0
  4  5  1  0  0  0  0
  4 11  1  0  0  0  0
  5  6  1  0  0  0  0
  6  7  2  0  0  0  0
  6 10  1  0  0  0  0
  7  8  1  0  0  0  0
  8  9  2  0  0  0  0
  9 10  1  0  0  0  0
 11 12  1  0  0  0  0
M  END
> <Index>
17083

> <PropertyFieldDistance>
nan

$$$$
627684
BBcorina  12272117083D 1   1.00000     0.00000 
CORINA 4.3.0 0026  30.10.2019
 10 10  0  0  0  0  0  0  0  0999 V2000
  -34.3454    3.7937  -42.0532 N   0  0  0  0  0  0  0  0  0  0  0  0
  -34.0521    4.7137  -43.1603 C   0  0  0  0  0  0  0  0  0  0  0  0
  -34.6145    6.1006  -42.8392 C   0  0  0  0  0  0  0  0  0  0  0  0
  -35.9119    5.9875  -42.0595 C   0  0  0  0  0  0  0  0  0  0  0  0
  -37.0545    5.3839  -42.8555 C   0  0  0  0  0  0  0  0  0  0  0  0
  -36.7787    3.9136  -43.1761 C   0  0  0  0  0  0  0  0  0  0  0  0
  -35.9918    3.8420  -44.4180 N   0  0  0  0  0  0  0  0  0  0  0  0
  -34.7101    4.2104  -44.4278 C   0  0  0  0  0  0  0  0  0  0  0  0
  -34.0694    4.1421  -45.4554 O   0  0  0  0  0  0  0  0  0  0  0  0
  -34.3609    2.1711  -42.5924 X   0  0  0  0  0  0  0  0  0  0  0  0
  1  2  1  0  0  0  0
  1 10  1  0  0  0  0
  2  3  1  0  0  0  0
  2  8  1  0  0  0  0
  3  4  1  0  0  0  0
  4  5  1  0  0  0  0
  5  6  1  0  0  0  0
  6  7  1  0  0  0  0
  7  8  1  0  0  0  0
  8  9  2  0  0  0  0
M  END
> <Index>
17096

> <PropertyFieldDistance>
nan

$$$$
2163496
BBcorina  12272117083D 1   1.00000     0.00000 
CORINA 4.3.0 0026  30.10.2019
 10 11  0  0  0  0  0  0  0  0999 V2000
  -36.0087    3.6126  -44.3879 N   0  0  0  0  0  0  0  0  0  0  0  0
  -37.0096    4.4890  -43.7635 C   0  0  0  0  0  0  0  0  0  0  0  0
  -36.5702    4.8249  -42.3364 C   0  0  0  0  0  0  0  0  0  0  0  0
  -35.2533    5.4763  -42.3725 N   0  0  0  0  0  0  0  0  0  0  0  0
  -34.2525    4.6000  -42.9970 C   0  0  0  0  0  0  0  0  0  0  0  0
  -34.6918    4.2641  -44.4241 C   0  0  0  0  0  0  0  0  0  0  0  0
  -34.8301    5.8830  -41.0260 C   0  0  0  0  0  0  0  0  0  0  0  0
  -33.4740    6.5787  -40.8917 C   0  0  0  0  0  0  0  0  0  0  0  0
  -33.6466    5.1396  -40.4016 C   0  0  0  0  0  0  0  0  0  0  0  0
  -36.5014    3.1392  -45.9554 X   0  0  0  0  0  0  0  0  0  0  0  0
  1  2  1  0  0  0  0
  1  6  1  0  0  0  0
  1 10  1  0  0  0  0
  2  3  1  0  0  0  0
  3  4  1  0  0  0  0
  4  5  1  0  0  0  0
  4  7  1  0  0  0  0
  5  6  1  0  0  0  0
  7  8  1  0  0  0  0
  7  9  1  0  0  0  0
  8  9  1  0  0  0  0
M  END
> <Index>
17099

> <PropertyFieldDistance>
nan

$$$$
7594376
BBcorina  12272117083D 1   1.00000     0.00000 
CORINA 4.3.0 0026  30.10.2019
 14 16  0  0  0  0  0  0  0  0999 V2000
  -37.8470    6.4917  -41.5121 N   0  0  0  0  0  0  0  0  0  0  0  0
  -38.4318    5.1542  -41.6674 C   0  0  0  0  0  0  0  0  0  0  0  0
  -37.9305    4.5177  -42.9668 C   0  0  0  0  0  0  0  0  0  0  0  0
  -36.4038    4.4316  -42.9239 C   0  0  0  0  0  0  0  0  0  0  0  0
  -35.8301    5.8386  -42.7306 C   0  0  0  0  0  0  0  0  0  0  0  0
  -34.3042    5.7505  -42.6629 C   0  0  0  0  0  0  0  0  0  0  0  0
  -33.7869    5.1088  -43.9545 C   0  0  0  0  0  0  0  0  0  0  0  0
  -34.4297    3.7322  -44.1339 C   0  0  0  0  0  0  0  0  0  0  0  0
  -35.8922    3.8680  -44.1782 N   0  0  0  0  0  0  0  0  0  0  0  0
  -36.5317    2.5793  -44.4758 C   0  0  0  0  0  0  0  0  0  0  0  0
  -36.0315    1.8083  -45.6989 C   0  0  0  0  0  0  0  0  0  0  0  0
  -35.6905    1.3138  -44.2918 C   0  0  0  0  0  0  0  0  0  0  0  0
  -36.3809    6.4307  -41.4331 C   0  0  0  0  0  0  0  0  0  0  0  0
  -38.5013    7.2922  -40.1500 X   0  0  0  0  0  0  0  0  0  0  0  0
  1  2  1  0  0  0  0
  1 13  1  0  0  0  0
  1 14  1  0  0  0  0
  2  3  1  0  0  0  0
  3  4  1  0  0  0  0
  4  5  1  0  0  0  0
  4  9  1  0  0  0  0
  5  6  1  0  0  0  0
  5 13  1  0  0  0  0
  6  7  1  0  0  0  0
  7  8  1  0  0  0  0
  8  9  1  0  0  0  0
  9 10  1  0  0  0  0
 10 11  1  0  0  0  0
 10 12  1  0  0  0  0
 11 12  1  0  0  0  0
M  END
> <Index>
17110

> <PropertyFieldDistance>
nan

$$$$
11762190
BBcorina  12272117083D 1   1.00000     0.00000 
CORINA 4.3.0 0026  30.10.2019
 12 13  0  0  0  0  0  0  0  0999 V2000
  -36.2476    2.2364  -44.3053 C   0  0  0  0  0  0  0  0  0  0  0  0
  -36.4141    3.6389  -44.6942 N   0  0  0  0  0  0  0  0  0  0  0  0
  -36.3772    4.1021  -45.8988 N   0  0  0  0  0  0  0  0  0  0  0  0
  -36.5609    5.3792  -45.8922 N   0  0  0  0  0  0  0  0  0  0  0  0
  -36.7264    5.7780  -44.6352 C   0  0  0  0  0  0  0  0  0  0  0  0
  -36.9740    7.1645  -44.1021 C   0  0  0  0  0  0  0  0  0  0  0  0
  -37.5005    7.0426  -42.6662 C   0  0  0  0  0  0  0  0  0  0  0  0
  -36.5871    6.1124  -41.8624 C   0  0  0  0  0  0  0  0  0  0  0  0
  -36.7573    4.6708  -42.3596 C   0  0  0  0  0  0  0  0  0  0  0  0
  -36.6321    4.6697  -43.8598 C   0  0  0  0  0  0  0  0  0  0  0  0
  -37.5208    8.3704  -42.0383 N   0  0  0  0  0  0  0  0  0  0  0  0
  -38.6985    8.4450  -40.8006 X   0  0  0  0  0  0  0  0  0  0  0  0
  1  2  1  0  0  0  0
  2  3  1  0  0  0  0
  2 10  1  0  0  0  0
  3  4  2  0  0  0  0
  4  5  1  0  0  0  0
  5  6  1  0  0  0  0
  5 10  2  0  0  0  0
  6  7  1  0  0  0  0
  7  8  1  0  0  0  0
  7 11  1  0  0  0  0
  8  9  1  0  0  0  0
  9 10  1  0  0  0  0
 11 12  1  0  0  0  0
M  END
> <Index>
17146

> <PropertyFieldDistance>
nan

$$$$
9748126
BBcorina  12272117083D 1   1.00000     0.00000 
CORINA 4.3.0 0026  30.10.2019
 13 14  0  0  0  0  0  0  0  0999 V2000
  -36.2501    2.2628  -44.7880 C   0  0  0  0  0  0  0  0  0  0  0  0
  -36.0844    3.6712  -44.4049 N   0  0  0  0  0  0  0  0  0  0  0  0
  -36.9324    4.0069  -43.2551 C   0  0  0  0  0  0  0  0  0  0  0  0
  -36.6261    5.4474  -42.8254 C   0  0  0  0  0  0  0  0  0  0  0  0
  -35.2618    5.4985  -42.3957 O   0  0  0  0  0  0  0  0  0  0  0  0
  -34.3465    4.8764  -43.1888 C   0  0  0  0  0  0  0  0  0  0  0  0
  -33.0010    5.1546  -42.9977 C   0  0  0  0  0  0  0  0  0  0  0  0
  -32.0416    4.5298  -43.7819 C   0  0  0  0  0  0  0  0  0  0  0  0
  -30.6843    4.8114  -43.5869 N   0  0  0  0  0  0  0  0  0  0  0  0
  -32.4305    3.6247  -44.7598 C   0  0  0  0  0  0  0  0  0  0  0  0
  -33.7699    3.3524  -44.9562 C   0  0  0  0  0  0  0  0  0  0  0  0
  -34.7353    3.9729  -44.1709 C   0  0  0  0  0  0  0  0  0  0  0  0
  -29.5036    4.0402  -44.5537 X   0  0  0  0  0  0  0  0  0  0  0  0
  1  2  1  0  0  0  0
  2  3  1  0  0  0  0
  2 12  1  0  0  0  0
  3  4  1  0  0  0  0
  4  5  1  0  0  0  0
  5  6  1  0  0  0  0
  6  7  2  0  0  0  0
  6 12  1  0  0  0  0
  7  8  1  0  0  0  0
  8  9  1  0  0  0  0
  8 10  2  0  0  0  0
  9 13  1  0  0  0  0
 10 11  1  0  0  0  0
 11 12  2  0  0  0  0
M  END
> <Index>
17158

> <PropertyFieldDistance>
nan

$$$$
13225124
BBcorina  12272117083D 1   1.00000     0.00000 
CORINA 4.3.0 0026  30.10.2019
 13 14  0  0  0  0  0  0  0  0999 V2000
  -35.9480    3.4664  -44.1723 N   0  0  0  0  0  0  0  0  0  0  0  0
  -37.0290    4.3869  -43.7977 C   0  0  0  0  0  0  0  0  0  0  0  0
  -36.6587    5.1099  -42.5007 C   0  0  0  0  0  0  0  0  0  0  0  0
  -35.3534    5.8832  -42.7080 C   0  0  0  0  0  0  0  0  0  0  0  0
  -34.2559    4.9088  -43.1443 C   0  0  0  0  0  0  0  0  0  0  0  0
  -34.6958    4.1917  -44.4226 C   0  0  0  0  0  0  0  0  0  0  0  0
  -34.9458    6.5589  -41.3972 C   0  0  0  0  0  0  0  0  0  0  0  0
  -33.6606    7.3865  -41.5916 C   0  0  0  0  0  0  0  0  0  0  0  0
  -34.0696    8.7506  -41.2842 O   0  0  0  0  0  0  0  0  0  0  0  0
  -35.3673    8.7647  -40.9595 C   0  0  0  0  0  0  0  0  0  0  0  0
  -35.9646    9.7793  -40.6587 O   0  0  0  0  0  0  0  0  0  0  0  0
  -35.9504    7.5552  -40.9952 N   0  0  0  0  0  0  0  0  0  0  0  0
  -36.3899    2.5210  -45.5270 X   0  0  0  0  0  0  0  0  0  0  0  0
  1  2  1  0  0  0  0
  1  6  1  0  0  0  0
  1 13  1  0  0  0  0
  2  3  1  0  0  0  0
  3  4  1  0  0  0  0
  4  5  1  0  0  0  0
  4  7  1  0  0  0  0
  5  6  1  0  0  0  0
  7  8  1  0  0  0  0
  7 12  1  0  0  0  0
  8  9  1  0  0  0  0
  9 10  1  0  0  0  0
 10 11  2  0  0  0  0
 10 12  1  0  0  0  0
M  END
> <Index>
17172

> <PropertyFieldDistance>
nan

$$$$
12435808
BBcorina  12272117083D 1   1.00000     0.00000 
CORINA 4.3.0 0026  30.10.2019
 14 15  0  0  0  0  0  0  0  0999 V2000
  -35.8874   -0.1590  -44.8907 N   0  0  0  0  0  0  0  0  0  0  0  0
  -35.3912   -0.1098  -46.2720 C   0  0  0  0  0  0  0  0  0  0  0  0
  -36.0951    1.0192  -47.0283 C   0  0  0  0  0  0  0  0  0  0  0  0
  -35.8220    2.3491  -46.3203 C   0  0  0  0  0  0  0  0  0  0  0  0
  -36.3041    2.2547  -44.8701 C   0  0  0  0  0  0  0  0  0  0  0  0
  -35.5942    1.0900  -44.1763 C   0  0  0  0  0  0  0  0  0  0  0  0
  -35.9951    3.5034  -44.1689 N   0  0  0  0  0  0  0  0  0  0  0  0
  -37.1047    4.2653  -43.6097 C   0  0  0  0  0  0  0  0  0  0  0  0
  -36.5989    5.2371  -42.5401 C   0  0  0  0  0  0  0  0  0  0  0  0
  -35.4375    6.0477  -43.1282 C   0  0  0  0  0  0  0  0  0  0  0  0
  -34.2551    5.1030  -43.3572 C   0  0  0  0  0  0  0  0  0  0  0  0
  -34.7168    3.8742  -44.0870 C   0  0  0  0  0  0  0  0  0  0  0  0
  -33.8824    3.1821  -44.6306 O   0  0  0  0  0  0  0  0  0  0  0  0
  -35.2459   -1.5071  -44.0569 X   0  0  0  0  0  0  0  0  0  0  0  0
  1  2  1  0  0  0  0
  1  6  1  0  0  0  0
  1 14  1  0  0  0  0
  2  3  1  0  0  0  0
  3  4  1  0  0  0  0
  4  5  1  0  0  0  0
  5  6  1  0  0  0  0
  5  7  1  0  0  0  0
  7  8  1  0  0  0  0
  7 12  1  0  0  0  0
  8  9  1  0  0  0  0
  9 10  1  0  0  0  0
 10 11  1  0  0  0  0
 11 12  1  0  0  0  0
 12 13  2  0  0  0  0
M  END
> <Index>
17183

> <PropertyFieldDistance>
nan

$$$$
12640342
BBcorina  12272117083D 1   1.00000     0.00000 
CORINA 4.3.0 0026  30.10.2019
  8  8  0  0  0  0  0  0  0  0999 V2000
  -38.0138    5.9835  -42.1414 C   0  0  0  0  0  0  0  0  0  0  0  0
  -36.8193    5.0817  -42.4592 C   0  0  0  0  0  0  0  0  0  0  0  0
  -37.0425    4.3878  -43.8072 C   0  0  0  0  0  0  0  0  0  0  0  0
  -35.9207    3.4918  -44.0974 N   0  0  0  0  0  0  0  0  0  0  0  0
  -34.7009    4.2177  -44.4589 C   0  0  0  0  0  0  0  0  0  0  0  0
  -34.1039    4.8846  -43.2149 C   0  0  0  0  0  0  0  0  0  0  0  0
  -35.3073    6.0868  -42.5707 S   0  0  0  0  0  0  0  0  0  0  0  0
  -36.3394    2.3570  -45.3060 X   0  0  0  0  0  0  0  0  0  0  0  0
  1  2  1  0  0  0  0
  2  3  1  0  0  0  0
  2  7  1  0  0  0  0
  3  4  1  0  0  0  0
  4  5  1  0  0  0  0
  4  8  1  0  0  0  0
  5  6  1  0  0  0  0
  6  7  1  0  0  0  0
M  END
> <Index>
17188

> <PropertyFieldDistance>
nan

$$$$
12627360
BBcorina  12272117083D 1   1.00000     0.00000 
CORINA 4.3.0 0026  30.10.2019
 11 13  0  0  0  0  0  0  0  0999 V2000
  -36.0172    3.5907  -44.4932 N   0  0  0  0  0  0  0  0  0  0  0  0
  -36.3927    2.1730  -44.5794 C   0  0  0  0  0  0  0  0  0  0  0  0
  -36.1066    1.6579  -45.9786 C   0  0  0  0  0  0  0  0  0  0  0  0
  -34.6066    1.6135  -46.3347 C   0  0  0  0  0  0  0  0  0  0  0  0
  -34.4014    0.2245  -47.0118 C   0  0  0  0  0  0  0  0  0  0  0  0
  -35.8409   -0.0714  -47.5712 C   0  0  0  0  0  0  0  0  0  0  0  0
  -36.5832    0.1979  -46.2050 C   0  0  0  0  0  0  0  0  0  0  0  0
  -35.8079   -0.7450  -45.2579 C   0  0  0  0  0  0  0  0  0  0  0  0
  -34.6158   -0.3127  -44.4264 C   0  0  0  0  0  0  0  0  0  0  0  0
  -34.3722   -0.8090  -45.8469 C   0  0  0  0  0  0  0  0  0  0  0  0
  -36.3239    4.2118  -42.9298 X   0  0  0  0  0  0  0  0  0  0  0  0
  1  2  1  0  0  0  0
  1 11  1  0  0  0  0
  2  3  1  0  0  0  0
  3  4  1  0  0  0  0
  3  7  1  0  0  0  0
  4  5  1  0  0  0  0
  5  6  1  0  0  0  0
  5 10  1  0  0  0  0
  6  7  1  0  0  0  0
  7  8  1  0  0  0  0
  8  9  1  0  0  0  0
  8 10  1  0  0  0  0
  9 10  1  0  0  0  0
M  END
> <Index>
17192

> <PropertyFieldDistance>
nan

$$$$
17067632
BBcorina  12272117083D 1   1.00000     0.00000 
CORINA 4.3.0 0026  30.10.2019
 12 14  0  0  0  0  0  0  0  0999 V2000
  -36.0397    4.0639  -44.6517 N   0  0  0  0  0  0  0  0  0  0  0  0
  -36.9814    4.0785  -43.5235 C   0  0  0  0  0  0  0  0  0  0  0  0
  -36.5957    5.1993  -42.5552 C   0  0  0  0  0  0  0  0  0  0  0  0
  -35.2197    4.9859  -42.0856 N   0  0  0  0  0  0  0  0  0  0  0  0
  -34.2779    4.9711  -43.2142 C   0  0  0  0  0  0  0  0  0  0  0  0
  -34.6635    3.8503  -44.1826 C   0  0  0  0  0  0  0  0  0  0  0  0
  -34.8383    6.0009  -41.0943 C   0  0  0  0  0  0  0  0  0  0  0  0
  -33.5023    6.1676  -40.3385 C   0  0  0  0  0  0  0  0  0  0  0  0
  -34.3216    7.3400  -39.7566 C   0  0  0  0  0  0  0  0  0  0  0  0
  -34.7713    7.5405  -41.2491 C   0  0  0  0  0  0  0  0  0  0  0  0
  -35.4826    6.3154  -39.7213 C   0  0  0  0  0  0  0  0  0  0  0  0
  -36.4841    2.8825  -45.8055 X   0  0  0  0  0  0  0  0  0  0  0  0
  1  2  1  0  0  0  0
  1  6  1  0  0  0  0
  1 12  1  0  0  0  0
  2  3  1  0  0  0  0
  3  4  1  0  0  0  0
  4  5  1  0  0  0  0
  4  7  1  0  0  0  0
  5  6  1  0  0  0  0
  7  8  1  0  0  0  0
  7 10  1  0  0  0  0
  7 11  1  0  0  0  0
  8  9  1  0  0  0  0
  9 10  1  0  0  0  0
  9 11  1  0  0  0  0
M  END
> <Index>
17205

> <PropertyFieldDistance>
nan

$$$$
13259676
BBcorina  12272117083D 1   1.00000     0.00000 
CORINA 4.3.0 0026  30.10.2019
 10 10  0  0  0  0  0  0  0  0999 V2000
  -36.3176    2.3436  -46.0201 C   0  0  0  0  0  0  0  0  0  0  0  0
  -36.1637    1.9885  -44.5399 C   0  0  0  0  0  0  0  0  0  0  0  0
  -35.8755    3.2069  -43.7715 N   0  0  0  0  0  0  0  0  0  0  0  0
  -37.0207    4.1258  -43.7931 C   0  0  0  0  0  0  0  0  0  0  0  0
  -36.7415    5.3123  -42.8677 C   0  0  0  0  0  0  0  0  0  0  0  0
  -35.4758    6.0338  -43.3380 C   0  0  0  0  0  0  0  0  0  0  0  0
  -34.3086    5.0427  -43.3526 C   0  0  0  0  0  0  0  0  0  0  0  0
  -34.6580    3.8640  -44.2640 C   0  0  0  0  0  0  0  0  0  0  0  0
  -33.1022    5.7120  -43.8571 N   0  0  0  0  0  0  0  0  0  0  0  0
  -33.3460    6.3002  -45.4441 X   0  0  0  0  0  0  0  0  0  0  0  0
  1  2  1  0  0  0  0
  2  3  1  0  0  0  0
  3  4  1  0  0  0  0
  3  8  1  0  0  0  0
  4  5  1  0  0  0  0
  5  6  1  0  0  0  0
  6  7  1  0  0  0  0
  7  8  1  0  0  0  0
  7  9  1  0  0  0  0
  9 10  1  0  0  0  0
M  END
> <Index>
17220

> <PropertyFieldDistance>
nan

$$$$
12421248
BBcorina  12272117083D 1   1.00000     0.00000 
CORINA 4.3.0 0026  30.10.2019
 11 12  0  0  0  0  0  0  0  0999 V2000
  -37.4518    5.2649  -41.3028 C   0  0  0  0  0  0  0  0  0  0  0  0
  -36.7752    5.3281  -42.6735 C   0  0  0  0  0  0  0  0  0  0  0  0
  -36.8826    3.9643  -43.3705 C   0  0  0  0  0  0  0  0  0  0  0  0
  -36.0275    3.9441  -44.5643 N   0  0  0  0  0  0  0  0  0  0  0  0
  -34.5996    3.8649  -44.2105 C   0  0  0  0  0  0  0  0  0  0  0  0
  -34.3024    4.9623  -43.2189 C   0  0  0  0  0  0  0  0  0  0  0  0
  -33.1148    5.4691  -42.8472 C   0  0  0  0  0  0  0  0  0  0  0  0
  -33.3514    6.4393  -41.9348 N   0  0  0  0  0  0  0  0  0  0  0  0
  -34.7394    6.5255  -41.7429 N   0  0  0  0  0  0  0  0  0  0  0  0
  -35.3076    5.6432  -42.5076 C   0  0  0  0  0  0  0  0  0  0  0  0
  -36.4705    2.6690  -45.6139 X   0  0  0  0  0  0  0  0  0  0  0  0
  1  2  1  0  0  0  0
  2  3  1  0  0  0  0
  2 10  1  0  0  0  0
  3  4  1  0  0  0  0
  4  5  1  0  0  0  0
  4 11  1  0  0  0  0
  5  6  1  0  0  0  0
  6  7  2  0  0  0  0
  6 10  1  0  0  0  0
  7  8  1  0  0  0  0
  8  9  1  0  0  0  0
  9 10  2  0  0  0  0
M  END
> <Index>
17230

> <PropertyFieldDistance>
nan

$$$$
13146908
BBcorina  12272117083D 1   1.00000     0.00000 
CORINA 4.3.0 0026  30.10.2019
 10 11  0  0  0  0  0  0  0  0999 V2000
  -36.0172    3.5927  -44.4913 N   0  0  0  0  0  0  0  0  0  0  0  0
  -36.3933    2.1751  -44.5753 C   0  0  0  0  0  0  0  0  0  0  0  0
  -36.1059    1.6538  -45.9846 C   0  0  0  0  0  0  0  0  0  0  0  0
  -36.4976    0.1774  -46.0722 C   0  0  0  0  0  0  0  0  0  0  0  0
  -38.0311    0.0139  -45.9273 C   0  0  0  0  0  0  0  0  0  0  0  0
  -38.2972   -1.3445  -46.6224 C   0  0  0  0  0  0  0  0  0  0  0  0
  -37.3328   -1.3485  -47.8265 C   0  0  0  0  0  0  0  0  0  0  0  0
  -37.1555   -0.0495  -48.6152 C   0  0  0  0  0  0  0  0  0  0  0  0
  -36.1887   -0.3809  -47.4766 C   0  0  0  0  0  0  0  0  0  0  0  0
  -36.3230    4.2163  -42.9287 X   0  0  0  0  0  0  0  0  0  0  0  0
  1  2  1  0  0  0  0
  1 10  1  0  0  0  0
  2  3  1  0  0  0  0
  3  4  1  0  0  0  0
  4  5  1  0  0  0  0
  4  9  1  0  0  0  0
  5  6  1  0  0  0  0
  6  7  1  0  0  0  0
  7  8  1  0  0  0  0
  7  9  1  0  0  0  0
  8  9  1  0  0  0  0
M  END
> <Index>
17241

> <PropertyFieldDistance>
nan

$$$$
12341046
BBcorina  12272117083D 1   1.00000     0.00000 
CORINA 4.3.0 0026  30.10.2019
 15 16  0  0  0  0  0  0  0  0999 V2000
  -35.8542    6.8453  -44.3873 C   0  0  0  0  0  0  0  0  0  0  0  0
  -35.4404    6.0752  -43.1317 C   0  0  0  0  0  0  0  0  0  0  0  0
  -36.6452    5.3094  -42.5839 C   0  0  0  0  0  0  0  0  0  0  0  0
  -36.9767    4.1569  -43.4931 C   0  0  0  0  0  0  0  0  0  0  0  0
  -38.1351    3.8375  -43.6582 O   0  0  0  0  0  0  0  0  0  0  0  0
  -36.0028    3.4769  -44.1255 N   0  0  0  0  0  0  0  0  0  0  0  0
  -36.3485    2.3474  -44.9920 C   0  0  0  0  0  0  0  0  0  0  0  0
  -34.6605    3.8425  -43.9611 C   0  0  0  0  0  0  0  0  0  0  0  0
  -33.6502    2.9457  -44.2811 C   0  0  0  0  0  0  0  0  0  0  0  0
  -32.3279    3.3090  -44.1187 C   0  0  0  0  0  0  0  0  0  0  0  0
  -32.0087    4.5690  -43.6298 C   0  0  0  0  0  0  0  0  0  0  0  0
  -30.6692    4.9345  -43.4595 N   0  0  0  0  0  0  0  0  0  0  0  0
  -33.0198    5.4682  -43.3150 C   0  0  0  0  0  0  0  0  0  0  0  0
  -34.3411    5.1047  -43.4775 C   0  0  0  0  0  0  0  0  0  0  0  0
  -30.2762    6.4861  -42.8576 X   0  0  0  0  0  0  0  0  0  0  0  0
  1  2  1  0  0  0  0
  2  3  1  0  0  0  0
  2 14  1  0  0  0  0
  3  4  1  0  0  0  0
  4  5  2  0  0  0  0
  4  6  1  0  0  0  0
  6  7  1  0  0  0  0
  6  8  1  0  0  0  0
  8  9  2  0  0  0  0
  8 14  1  0  0  0  0
  9 10  1  0  0  0  0
 10 11  2  0  0  0  0
 11 12  1  0  0  0  0
 11 13  1  0  0  0  0
 12 15  1  0  0  0  0
 13 14  2  0  0  0  0
M  END
> <Index>
17258

> <PropertyFieldDistance>
nan

$$$$
12329790
BBcorina  12272117083D 1   1.00000     0.00000 
CORINA 4.3.0 0026  30.10.2019
 11 11  0  0  0  0  0  0  0  0999 V2000
  -37.0716    1.6070  -43.4285 O   0  0  0  0  0  0  0  0  0  0  0  0
  -36.8791    2.7630  -42.6107 C   0  0  0  0  0  0  0  0  0  0  0  0
  -36.9724    4.0211  -43.4763 C   0  0  0  0  0  0  0  0  0  0  0  0
  -38.3934    4.1598  -44.0262 C   0  0  0  0  0  0  0  0  0  0  0  0
  -38.4803    5.3663  -44.8597 N   0  0  0  0  0  0  0  0  0  0  0  0
  -36.6293    5.2502  -42.6304 C   0  0  0  0  0  0  0  0  0  0  0  0
  -35.2752    5.1506  -42.1812 O   0  0  0  0  0  0  0  0  0  0  0  0
  -34.3222    5.0515  -43.2429 C   0  0  0  0  0  0  0  0  0  0  0  0
  -34.6419    3.8204  -44.0951 C   0  0  0  0  0  0  0  0  0  0  0  0
  -36.0215    3.9204  -44.5930 N   0  0  0  0  0  0  0  0  0  0  0  0
  -40.0888    5.6445  -45.3693 X   0  0  0  0  0  0  0  0  0  0  0  0
  1  2  1  0  0  0  0
  2  3  1  0  0  0  0
  3  4  1  0  0  0  0
  3  6  1  0  0  0  0
  3 10  1  0  0  0  0
  4  5  1  0  0  0  0
  5 11  1  0  0  0  0
  6  7  1  0  0  0  0
  7  8  1  0  0  0  0
  8  9  1  0  0  0  0
  9 10  1  0  0  0  0
M  END
> <Index>
17262

> <PropertyFieldDistance>
nan

$$$$
12360610
BBcorina  12272117083D 1   1.00000     0.00000 
CORINA 4.3.0 0026  30.10.2019
 11 11  0  0  0  0  0  0  0  0999 V2000
  -33.5699    6.3383  -40.7901 C   0  0  0  0  0  0  0  0  0  0  0  0
  -34.9401    6.3811  -41.3179 N   0  0  0  0  0  0  0  0  0  0  0  0
  -35.1541    7.5867  -42.1295 C   0  0  0  0  0  0  0  0  0  0  0  0
  -35.2462    5.1675  -42.0870 C   0  0  0  0  0  0  0  0  0  0  0  0
  -35.1044    3.9406  -41.1840 C   0  0  0  0  0  0  0  0  0  0  0  0
  -36.6793    5.2476  -42.6202 C   0  0  0  0  0  0  0  0  0  0  0  0
  -36.9723    4.0087  -43.4695 C   0  0  0  0  0  0  0  0  0  0  0  0
  -36.0191    3.9414  -44.5845 N   0  0  0  0  0  0  0  0  0  0  0  0
  -34.6396    3.8164  -44.0970 C   0  0  0  0  0  0  0  0  0  0  0  0
  -34.2770    5.0496  -43.2665 C   0  0  0  0  0  0  0  0  0  0  0  0
  -36.4110    2.6621  -45.6494 X   0  0  0  0  0  0  0  0  0  0  0  0
  1  2  1  0  0  0  0
  2  3  1  0  0  0  0
  2  4  1  0  0  0  0
  4  5  1  0  0  0  0
  4  6  1  0  0  0  0
  4 10  1  0  0  0  0
  6  7  1  0  0  0  0
  7  8  1  0  0  0  0
  8  9  1  0  0  0  0
  8 11  1  0  0  0  0
  9 10  1  0  0  0  0
M  END
> <Index>
17275

> <PropertyFieldDistance>
nan

$$$$
12364936
BBcorina  12272117083D 1   1.00000     0.00000 
CORINA 4.3.0 0026  30.10.2019
  9 10  0  0  0  0  0  0  0  0999 V2000
  -37.5304    2.7021  -42.9907 N   0  0  0  0  0  0  0  0  0  0  0  0
  -36.5932    3.5377  -43.7533 C   0  0  0  0  0  0  0  0  0  0  0  0
  -36.6486    3.1647  -45.2504 C   0  0  0  0  0  0  0  0  0  0  0  0
  -35.1797    3.2866  -45.7276 C   0  0  0  0  0  0  0  0  0  0  0  0
  -34.3785    2.7476  -44.5152 C   0  0  0  0  0  0  0  0  0  0  0  0
  -35.1507    3.2696  -43.2909 C   0  0  0  0  0  0  0  0  0  0  0  0
  -34.8541    2.7348  -41.8933 C   0  0  0  0  0  0  0  0  0  0  0  0
  -34.4703    4.1697  -42.2639 C   0  0  0  0  0  0  0  0  0  0  0  0
  -37.1657    1.0423  -43.1807 X   0  0  0  0  0  0  0  0  0  0  0  0
  1  2  1  0  0  0  0
  1  9  1  0  0  0  0
  2  3  1  0  0  0  0
  2  6  1  0  0  0  0
  3  4  1  0  0  0  0
  4  5  1  0  0  0  0
  5  6  1  0  0  0  0
  6  7  1  0  0  0  0
  6  8  1  0  0  0  0
  7  8  1  0  0  0  0
M  END
> <Index>
17277

> <PropertyFieldDistance>
nan

$$$$
12360614
BBcorina  12272117083D 1   1.00000     0.00000 
CORINA 4.3.0 0026  30.10.2019
 13 14  0  0  0  0  0  0  0  0999 V2000
  -35.2517    5.7273  -42.7085 N   0  0  0  0  0  0  0  0  0  0  0  0
  -36.5103    5.0791  -42.3144 C   0  0  0  0  0  0  0  0  0  0  0  0
  -37.0927    4.3292  -43.5148 C   0  0  0  0  0  0  0  0  0  0  0  0
  -36.1182    3.3364  -43.9885 N   0  0  0  0  0  0  0  0  0  0  0  0
  -36.6706    2.5428  -45.0944 C   0  0  0  0  0  0  0  0  0  0  0  0
  -35.5753    1.7129  -45.7131 C   0  0  0  0  0  0  0  0  0  0  0  0
  -35.2248    0.4759  -45.3486 C   0  0  0  0  0  0  0  0  0  0  0  0
  -34.2329   -0.0391  -46.0467 N   0  0  0  0  0  0  0  0  0  0  0  0
  -33.7271    0.6946  -46.9799 C   0  0  0  0  0  0  0  0  0  0  0  0
  -34.5311    2.2020  -47.0454 S   0  0  0  0  0  0  0  0  0  0  0  0
  -34.8596    3.9845  -44.3827 C   0  0  0  0  0  0  0  0  0  0  0  0
  -34.2772    4.7344  -43.1823 C   0  0  0  0  0  0  0  0  0  0  0  0
  -34.6087    6.6511  -41.4212 X   0  0  0  0  0  0  0  0  0  0  0  0
  1  2  1  0  0  0  0
  1 12  1  0  0  0  0
  1 13  1  0  0  0  0
  2  3  1  0  0  0  0
  3  4  1  0  0  0  0
  4  5  1  0  0  0  0
  4 11  1  0  0  0  0
  5  6  1  0  0  0  0
  6  7  2  0  0  0  0
  6 10  1  0  0  0  0
  7  8  1  0  0  0  0
  8  9  2  0  0  0  0
  9 10  1  0  0  0  0
 11 12  1  0  0  0  0
M  END
> <Index>
17278

> <PropertyFieldDistance>
nan

$$$$
13040070
BBcorina  12272117083D 1   1.00000     0.00000 
CORINA 4.3.0 0026  30.10.2019
  9  9  0  0  0  0  0  0  0  0999 V2000
  -33.5746    4.7618  -43.3741 N   0  0  0  0  0  0  0  0  0  0  0  0
  -34.8867    4.1029  -43.3267 C   0  0  0  0  0  0  0  0  0  0  0  0
  -35.4432    4.0319  -44.7380 C   0  0  0  0  0  0  0  0  0  0  0  0
  -36.8866    3.5237  -44.7270 C   0  0  0  0  0  0  0  0  0  0  0  0
  -36.8660    2.0101  -44.7353 C   0  0  0  0  0  0  0  0  0  0  0  0
  -36.5002    1.3546  -43.6798 C   0  0  0  0  0  0  0  0  0  0  0  0
  -36.0881    2.0936  -42.4247 C   0  0  0  0  0  0  0  0  0  0  0  0
  -34.7247    2.7450  -42.6667 C   0  0  0  0  0  0  0  0  0  0  0  0
  -32.4544    3.8325  -44.2718 X   0  0  0  0  0  0  0  0  0  0  0  0
  1  2  1  0  0  0  0
  1  9  1  0  0  0  0
  2  3  1  0  0  0  0
  2  8  1  0  0  0  0
  3  4  1  0  0  0  0
  4  5  1  0  0  0  0
  5  6  2  0  0  0  0
  6  7  1  0  0  0  0
  7  8  1  0  0  0  0
M  END
> <Index>
17288

> <PropertyFieldDistance>
nan

$$$$
13035670
BBcorina  12272117083D 1   1.00000     0.00000 
CORINA 4.3.0 0026  30.10.2019
 11 11  0  0  0  0  0  0  0  0999 V2000
  -30.6418    5.9086  -40.9961 C   0  0  0  0  0  0  0  0  0  0  0  0
  -31.9206    6.2648  -41.5844 O   0  0  0  0  0  0  0  0  0  0  0  0
  -32.8159    5.2725  -41.7477 C   0  0  0  0  0  0  0  0  0  0  0  0
  -32.5361    4.1399  -41.4081 O   0  0  0  0  0  0  0  0  0  0  0  0
  -34.0223    5.5354  -42.2880 N   0  0  0  0  0  0  0  0  0  0  0  0
  -34.9963    4.4557  -42.4657 C   0  0  0  0  0  0  0  0  0  0  0  0
  -36.4271    5.0338  -42.5595 C   0  0  0  0  0  0  0  0  0  0  0  0
  -37.0854    4.1536  -43.6516 C   0  0  0  0  0  0  0  0  0  0  0  0
  -35.9828    3.9350  -44.6224 N   0  0  0  0  0  0  0  0  0  0  0  0
  -34.7625    3.7407  -43.8095 C   0  0  0  0  0  0  0  0  0  0  0  0
  -36.2908    2.5675  -45.6018 X   0  0  0  0  0  0  0  0  0  0  0  0
  1  2  1  0  0  0  0
  2  3  1  0  0  0  0
  3  4  2  0  0  0  0
  3  5  1  0  0  0  0
  5  6  1  0  0  0  0
  6  7  1  0  0  0  0
  6 10  1  0  0  0  0
  7  8  1  0  0  0  0
  8  9  1  0  0  0  0
  9 10  1  0  0  0  0
  9 11  1  0  0  0  0
M  END
> <Index>
17298

> <PropertyFieldDistance>
nan

$$$$
10543138
BBcorina  12272117083D 1   1.00000     0.00000 
CORINA 4.3.0 0026  30.10.2019
 14 14  0  0  0  0  0  0  0  0999 V2000
  -36.4080    1.2769  -43.7213 F   0  0  0  0  0  0  0  0  0  0  0  0
  -35.9568    1.4841  -45.0292 C   0  0  0  0  0  0  0  0  0  0  0  0
  -36.4367    0.4623  -45.8555 F   0  0  0  0  0  0  0  0  0  0  0  0
  -34.5579    1.4794  -45.0462 F   0  0  0  0  0  0  0  0  0  0  0  0
  -36.4684    2.8336  -45.5373 C   0  0  0  0  0  0  0  0  0  0  0  0
  -36.0937    3.8889  -44.5866 N   0  0  0  0  0  0  0  0  0  0  0  0
  -36.9615    3.8627  -43.4023 C   0  0  0  0  0  0  0  0  0  0  0  0
  -36.6389    5.0601  -42.5057 C   0  0  0  0  0  0  0  0  0  0  0  0
  -35.1681    4.9949  -42.0849 C   0  0  0  0  0  0  0  0  0  0  0  0
  -34.2878    4.9746  -43.3375 C   0  0  0  0  0  0  0  0  0  0  0  0
  -32.8190    4.8493  -42.9277 C   0  0  0  0  0  0  0  0  0  0  0  0
  -32.4117    6.0533  -42.1912 N   0  0  0  0  0  0  0  0  0  0  0  0
  -34.6784    3.7798  -44.2103 C   0  0  0  0  0  0  0  0  0  0  0  0
  -30.7728    5.9542  -41.7133 X   0  0  0  0  0  0  0  0  0  0  0  0
  1  2  1  0  0  0  0
  2  3  1  0  0  0  0
  2  4  1  0  0  0  0
  2  5  1  0  0  0  0
  5  6  1  0  0  0  0
  6  7  1  0  0  0  0
  6 13  1  0  0  0  0
  7  8  1  0  0  0  0
  8  9  1  0  0  0  0
  9 10  1  0  0  0  0
 10 11  1  0  0  0  0
 10 13  1  0  0  0  0
 11 12  1  0  0  0  0
 12 14  1  0  0  0  0
M  END
> <Index>
17333

> <PropertyFieldDistance>
nan

$$$$
13142212
BBcorina  12272117083D 1   1.00000     0.00000 
CORINA 4.3.0 0026  30.10.2019
 14 14  0  0  0  0  0  0  0  0999 V2000
  -35.0920    0.6394  -47.9231 C   0  0  0  0  0  0  0  0  0  0  0  0
  -35.8967    0.9005  -46.7270 N   0  0  0  0  0  0  0  0  0  0  0  0
  -36.9070   -0.0698  -46.2976 C   0  0  0  0  0  0  0  0  0  0  0  0
  -35.7076    2.0331  -46.0215 C   0  0  0  0  0  0  0  0  0  0  0  0
  -34.8712    2.8364  -46.3769 O   0  0  0  0  0  0  0  0  0  0  0  0
  -36.5353    2.3017  -44.7912 C   0  0  0  0  0  0  0  0  0  0  0  0
  -36.1406    3.5906  -44.2072 N   0  0  0  0  0  0  0  0  0  0  0  0
  -37.0339    3.9803  -43.2010 C   0  0  0  0  0  0  0  0  0  0  0  0
  -36.7506    5.4208  -42.7190 C   0  0  0  0  0  0  0  0  0  0  0  0
  -35.5328    5.4091  -41.8305 C   0  0  0  0  0  0  0  0  0  0  0  0
  -34.2771    5.6741  -42.5689 N   0  0  0  0  0  0  0  0  0  0  0  0
  -34.1954    4.9840  -43.8726 C   0  0  0  0  0  0  0  0  0  0  0  0
  -34.7222    3.5732  -43.7964 C   0  0  0  0  0  0  0  0  0  0  0  0
  -34.0141    7.3544  -42.7474 X   0  0  0  0  0  0  0  0  0  0  0  0
  1  2  1  0  0  0  0
  2  3  1  0  0  0  0
  2  4  1  0  0  0  0
  4  5  2  0  0  0  0
  4  6  1  0  0  0  0
  6  7  1  0  0  0  0
  7  8  1  0  0  0  0
  7 13  1  0  0  0  0
  8  9  1  0  0  0  0
  9 10  1  0  0  0  0
 10 11  1  0  0  0  0
 11 12  1  0  0  0  0
 11 14  1  0  0  0  0
 12 13  1  0  0  0  0
M  END
> <Index>
17338

> <PropertyFieldDistance>
nan

$$$$
13206626
BBcorina  12272117083D 1   1.00000     0.00000 
CORINA 4.3.0 0026  30.10.2019
 13 13  0  0  0  0  0  0  0  0999 V2000
  -35.0920    0.6394  -47.9231 C   0  0  0  0  0  0  0  0  0  0  0  0
  -35.8967    0.9005  -46.7270 N   0  0  0  0  0  0  0  0  0  0  0  0
  -35.7076    2.0331  -46.0215 C   0  0  0  0  0  0  0  0  0  0  0  0
  -34.8712    2.8364  -46.3769 O   0  0  0  0  0  0  0  0  0  0  0  0
  -36.5353    2.3017  -44.7912 C   0  0  0  0  0  0  0  0  0  0  0  0
  -36.1406    3.5906  -44.2072 N   0  0  0  0  0  0  0  0  0  0  0  0
  -37.0339    3.9803  -43.2010 C   0  0  0  0  0  0  0  0  0  0  0  0
  -36.7506    5.4208  -42.7190 C   0  0  0  0  0  0  0  0  0  0  0  0
  -35.5328    5.4091  -41.8305 C   0  0  0  0  0  0  0  0  0  0  0  0
  -34.2771    5.6741  -42.5689 N   0  0  0  0  0  0  0  0  0  0  0  0
  -34.1954    4.9840  -43.8726 C   0  0  0  0  0  0  0  0  0  0  0  0
  -34.7222    3.5732  -43.7964 C   0  0  0  0  0  0  0  0  0  0  0  0
  -34.0141    7.3544  -42.7474 X   0  0  0  0  0  0  0  0  0  0  0  0
  1  2  1  0  0  0  0
  2  3  1  0  0  0  0
  3  4  2  0  0  0  0
  3  5  1  0  0  0  0
  5  6  1  0  0  0  0
  6  7  1  0  0  0  0
  6 12  1  0  0  0  0
  7  8  1  0  0  0  0
  8  9  1  0  0  0  0
  9 10  1  0  0  0  0
 10 11  1  0  0  0  0
 10 13  1  0  0  0  0
 11 12  1  0  0  0  0
M  END
> <Index>
17343

> <PropertyFieldDistance>
nan

$$$$
15785862
BBcorina  12272117083D 1   1.00000     0.00000 
CORINA 4.3.0 0026  30.10.2019
 11 11  0  0  0  0  0  0  0  0999 V2000
  -36.9662    2.0475  -47.6927 C   0  0  0  0  0  0  0  0  0  0  0  0
  -36.6297    3.2677  -46.8331 C   0  0  0  0  0  0  0  0  0  0  0  0
  -36.3545    2.8469  -45.4956 O   0  0  0  0  0  0  0  0  0  0  0  0
  -36.0192    3.9414  -44.5845 N   0  0  0  0  0  0  0  0  0  0  0  0
  -36.9723    4.0086  -43.4695 C   0  0  0  0  0  0  0  0  0  0  0  0
  -36.6793    5.2476  -42.6202 C   0  0  0  0  0  0  0  0  0  0  0  0
  -35.2462    5.1677  -42.0870 C   0  0  0  0  0  0  0  0  0  0  0  0
  -34.2769    5.0496  -43.2665 C   0  0  0  0  0  0  0  0  0  0  0  0
  -34.6396    3.8164  -44.0970 C   0  0  0  0  0  0  0  0  0  0  0  0
  -34.9396    6.3819  -41.3193 N   0  0  0  0  0  0  0  0  0  0  0  0
  -35.1883    7.7844  -42.2655 X   0  0  0  0  0  0  0  0  0  0  0  0
  1  2  1  0  0  0  0
  2  3  1  0  0  0  0
  3  4  1  0  0  0  0
  4  5  1  0  0  0  0
  4  9  1  0  0  0  0
  5  6  1  0  0  0  0
  6  7  1  0  0  0  0
  7  8  1  0  0  0  0
  7 10  1  0  0  0  0
  8  9  1  0  0  0  0
 10 11  1  0  0  0  0
M  END
> <Index>
17352

> <PropertyFieldDistance>
nan

$$$$
17662194
BBcorina  12272117083D 1   1.00000     0.00000 
CORINA 4.3.0 0026  30.10.2019
 15 16  0  0  0  0  0  0  0  0999 V2000
  -35.4910   -1.2868  -44.7984 C   0  0  0  0  0  0  0  0  0  0  0  0
  -35.9938   -0.0256  -45.3591 N   0  0  0  0  0  0  0  0  0  0  0  0
  -35.4764    0.1903  -46.7163 C   0  0  0  0  0  0  0  0  0  0  0  0
  -36.1323    1.4333  -47.3220 C   0  0  0  0  0  0  0  0  0  0  0  0
  -35.8262    2.6469  -46.4401 C   0  0  0  0  0  0  0  0  0  0  0  0
  -36.3321    2.3768  -45.0203 C   0  0  0  0  0  0  0  0  0  0  0  0
  -35.6704    1.1065  -44.4814 C   0  0  0  0  0  0  0  0  0  0  0  0
  -35.9920    3.5098  -44.1560 N   0  0  0  0  0  0  0  0  0  0  0  0
  -37.0753    4.2369  -43.5006 C   0  0  0  0  0  0  0  0  0  0  0  0
  -36.5228    5.0543  -42.3315 C   0  0  0  0  0  0  0  0  0  0  0  0
  -35.3737    5.8400  -42.8019 N   0  0  0  0  0  0  0  0  0  0  0  0
  -34.2458    4.9508  -43.1102 C   0  0  0  0  0  0  0  0  0  0  0  0
  -34.7033    3.8318  -44.0024 C   0  0  0  0  0  0  0  0  0  0  0  0
  -33.8687    3.1936  -44.6083 O   0  0  0  0  0  0  0  0  0  0  0  0
  -35.7946    6.7896  -44.1604 X   0  0  0  0  0  0  0  0  0  0  0  0
  1  2  1  0  0  0  0
  2  3  1  0  0  0  0
  2  7  1  0  0  0  0
  3  4  1  0  0  0  0
  4  5  1  0  0  0  0
  5  6  1  0  0  0  0
  6  7  1  0  0  0  0
  6  8  1  0  0  0  0
  8  9  1  0  0  0  0
  8 13  1  0  0  0  0
  9 10  1  0  0  0  0
 10 11  1  0  0  0  0
 11 12  1  0  0  0  0
 11 15  1  0  0  0  0
 12 13  1  0  0  0  0
 13 14  2  0  0  0  0
M  END
> <Index>
17365

> <PropertyFieldDistance>
nan

$$$$
17759094
BBcorina  12272117083D 1   1.00000     0.00000 
CORINA 4.3.0 0026  30.10.2019
 12 13  0  0  0  0  0  0  0  0999 V2000
  -34.0514    5.2773  -42.0926 F   0  0  0  0  0  0  0  0  0  0  0  0
  -34.9353    5.2379  -43.1762 C   0  0  0  0  0  0  0  0  0  0  0  0
  -34.7167    6.3304  -44.0223 F   0  0  0  0  0  0  0  0  0  0  0  0
  -36.3980    5.2312  -42.6756 C   0  0  0  0  0  0  0  0  0  0  0  0
  -37.0921    4.2439  -43.6472 C   0  0  0  0  0  0  0  0  0  0  0  0
  -36.0592    3.1990  -43.8654 N   0  0  0  0  0  0  0  0  0  0  0  0
  -34.7700    3.9187  -43.9531 C   0  0  0  0  0  0  0  0  0  0  0  0
  -36.3258    2.4443  -45.0971 C   0  0  0  0  0  0  0  0  0  0  0  0
  -35.3754    1.2525  -45.3115 C   0  0  0  0  0  0  0  0  0  0  0  0
  -36.5746    0.5013  -45.7436 N   0  0  0  0  0  0  0  0  0  0  0  0
  -37.4459    1.3984  -44.9528 C   0  0  0  0  0  0  0  0  0  0  0  0
  -36.5735   -1.0806  -45.0945 X   0  0  0  0  0  0  0  0  0  0  0  0
  1  2  1  0  0  0  0
  2  3  1  0  0  0  0
  2  4  1  0  0  0  0
  2  7  1  0  0  0  0
  4  5  1  0  0  0  0
  5  6  1  0  0  0  0
  6  7  1  0  0  0  0
  6  8  1  0  0  0  0
  8  9  1  0  0  0  0
  8 11  1  0  0  0  0
  9 10  1  0  0  0  0
 10 11  1  0  0  0  0
 10 12  1  0  0  0  0
M  END
> <Index>
17378

> <PropertyFieldDistance>
nan

$$$$
14792862
BBcorina  12272117083D 1   1.00000     0.00000 
CORINA 4.3.0 0026  30.10.2019
 14 15  0  0  0  0  0  0  0  0999 V2000
  -36.0071    3.5608  -44.3089 N   0  0  0  0  0  0  0  0  0  0  0  0
  -36.9646    4.5737  -43.8361 C   0  0  0  0  0  0  0  0  0  0  0  0
  -36.6501    4.8976  -42.3727 C   0  0  0  0  0  0  0  0  0  0  0  0
  -35.2300    5.2027  -42.2242 N   0  0  0  0  0  0  0  0  0  0  0  0
  -34.7904    5.9225  -41.0263 C   0  0  0  0  0  0  0  0  0  0  0  0
  -34.1174    7.2361  -41.4360 C   0  0  0  0  0  0  0  0  0  0  0  0
  -33.5938    7.9443  -40.1838 C   0  0  0  0  0  0  0  0  0  0  0  0
  -32.6870    7.0816  -39.4942 O   0  0  0  0  0  0  0  0  0  0  0  0
  -33.2731    5.8579  -39.0456 C   0  0  0  0  0  0  0  0  0  0  0  0
  -33.7849    5.0640  -40.2527 C   0  0  0  0  0  0  0  0  0  0  0  0
  -34.3121    4.8497  -43.1301 C   0  0  0  0  0  0  0  0  0  0  0  0
  -33.1484    5.1114  -42.9106 O   0  0  0  0  0  0  0  0  0  0  0  0
  -34.6621    4.1428  -44.4090 C   0  0  0  0  0  0  0  0  0  0  0  0
  -36.5025    2.9013  -45.8069 X   0  0  0  0  0  0  0  0  0  0  0  0
  1  2  1  0  0  0  0
  1 13  1  0  0  0  0
  1 14  1  0  0  0  0
  2  3  1  0  0  0  0
  3  4  1  0  0  0  0
  4  5  1  0  0  0  0
  4 11  1  0  0  0  0
  5  6  1  0  0  0  0
  5 10  1  0  0  0  0
  6  7  1  0  0  0  0
  7  8  1  0  0  0  0
  8  9  1  0  0  0  0
  9 10  1  0  0  0  0
 11 12  2  0  0  0  0
 11 13  1  0  0  0  0
M  END
> <Index>
17379

> <PropertyFieldDistance>
nan

$$$$
13426128
BBcorina  12272117083D 1   1.00000     0.00000 
CORINA 4.3.0 0026  30.10.2019
 11 12  0  0  0  0  0  0  0  0999 V2000
  -34.5099    1.2295  -45.1490 N   0  0  0  0  0  0  0  0  0  0  0  0
  -35.7115    0.9452  -44.3337 C   0  0  0  0  0  0  0  0  0  0  0  0
  -36.3098    2.2191  -44.9572 C   0  0  0  0  0  0  0  0  0  0  0  0
  -35.3248    1.9980  -46.1193 C   0  0  0  0  0  0  0  0  0  0  0  0
  -36.0453    3.4346  -44.1832 N   0  0  0  0  0  0  0  0  0  0  0  0
  -37.0873    4.3214  -43.6524 C   0  0  0  0  0  0  0  0  0  0  0  0
  -36.3858    5.1782  -42.5727 C   0  0  0  0  0  0  0  0  0  0  0  0
  -34.9183    5.1553  -43.0594 C   0  0  0  0  0  0  0  0  0  0  0  0
  -34.8170    3.8839  -43.8729 C   0  0  0  0  0  0  0  0  0  0  0  0
  -33.7787    3.3482  -44.1982 O   0  0  0  0  0  0  0  0  0  0  0  0
  -33.8974   -0.2011  -45.8577 X   0  0  0  0  0  0  0  0  0  0  0  0
  1  2  1  0  0  0  0
  1  4  1  0  0  0  0
  1 11  1  0  0  0  0
  2  3  1  0  0  0  0
  3  4  1  0  0  0  0
  3  5  1  0  0  0  0
  5  6  1  0  0  0  0
  5  9  1  0  0  0  0
  6  7  1  0  0  0  0
  7  8  1  0  0  0  0
  8  9  1  0  0  0  0
  9 10  2  0  0  0  0
M  END
> <Index>
17381

> <PropertyFieldDistance>
nan

$$$$
15065824
BBcorina  12272117083D 1   1.00000     0.00000 
CORINA 4.3.0 0026  30.10.2019
 12 13  0  0  0  0  0  0  0  0999 V2000
  -36.3045    0.4032  -44.1014 N   0  0  0  0  0  0  0  0  0  0  0  0
  -35.1804    1.3362  -44.3360 C   0  0  0  0  0  0  0  0  0  0  0  0
  -36.1139    2.4343  -43.7951 C   0  0  0  0  0  0  0  0  0  0  0  0
  -37.2776    1.5168  -44.2118 C   0  0  0  0  0  0  0  0  0  0  0  0
  -36.0505    3.6907  -44.5537 N   0  0  0  0  0  0  0  0  0  0  0  0
  -36.9969    4.6807  -44.0144 C   0  0  0  0  0  0  0  0  0  0  0  0
  -36.7266    4.8546  -42.5187 C   0  0  0  0  0  0  0  0  0  0  0  0
  -35.3045    5.0954  -42.2919 N   0  0  0  0  0  0  0  0  0  0  0  0
  -34.3647    4.8060  -43.1979 C   0  0  0  0  0  0  0  0  0  0  0  0
  -33.2030    5.0098  -42.9155 O   0  0  0  0  0  0  0  0  0  0  0  0
  -34.6878    4.2389  -44.5513 C   0  0  0  0  0  0  0  0  0  0  0  0
  -36.4748   -0.6910  -45.4044 X   0  0  0  0  0  0  0  0  0  0  0  0
  1  2  1  0  0  0  0
  1  4  1  0  0  0  0
  1 12  1  0  0  0  0
  2  3  1  0  0  0  0
  3  4  1  0  0  0  0
  3  5  1  0  0  0  0
  5  6  1  0  0  0  0
  5 11  1  0  0  0  0
  6  7  1  0  0  0  0
  7  8  1  0  0  0  0
  8  9  1  0  0  0  0
  9 10  2  0  0  0  0
  9 11  1  0  0  0  0
M  END
> <Index>
17382

> <PropertyFieldDistance>
nan

$$$$
17759124
BBcorina  12272117083D 1   1.00000     0.00000 
CORINA 4.3.0 0026  30.10.2019
 13 14  0  0  0  0  0  0  0  0999 V2000
  -36.3904    2.9969  -45.3542 C   0  0  0  0  0  0  0  0  0  0  0  0
  -35.9624    3.6809  -44.1315 N   0  0  0  0  0  0  0  0  0  0  0  0
  -36.9838    4.2432  -43.2526 C   0  0  0  0  0  0  0  0  0  0  0  0
  -36.3973    4.4981  -41.8629 C   0  0  0  0  0  0  0  0  0  0  0  0
  -35.1453    5.2532  -42.0115 N   0  0  0  0  0  0  0  0  0  0  0  0
  -34.1117    4.4101  -42.6272 C   0  0  0  0  0  0  0  0  0  0  0  0
  -34.6535    3.7628  -43.8703 C   0  0  0  0  0  0  0  0  0  0  0  0
  -33.8709    3.2954  -44.6703 O   0  0  0  0  0  0  0  0  0  0  0  0
  -35.3592    6.4788  -42.7925 C   0  0  0  0  0  0  0  0  0  0  0  0
  -36.4588    7.3928  -42.2225 C   0  0  0  0  0  0  0  0  0  0  0  0
  -35.5451    8.5160  -42.5269 N   0  0  0  0  0  0  0  0  0  0  0  0
  -34.3740    7.6111  -42.4508 C   0  0  0  0  0  0  0  0  0  0  0  0
  -35.5266    9.6540  -41.2507 X   0  0  0  0  0  0  0  0  0  0  0  0
  1  2  1  0  0  0  0
  2  3  1  0  0  0  0
  2  7  1  0  0  0  0
  3  4  1  0  0  0  0
  4  5  1  0  0  0  0
  5  6  1  0  0  0  0
  5  9  1  0  0  0  0
  6  7  1  0  0  0  0
  7  8  2  0  0  0  0
  9 10  1  0  0  0  0
  9 12  1  0  0  0  0
 10 11  1  0  0  0  0
 11 12  1  0  0  0  0
 11 13  1  0  0  0  0
M  END
> <Index>
17383

> <PropertyFieldDistance>
nan

$$$$
7687504
BBcorina  12272117083D 1   1.00000     0.00000 
CORINA 4.3.0 0026  30.10.2019
 14 15  0  0  0  0  0  0  0  0999 V2000
  -34.9741    6.9073  -41.8787 N   0  0  0  0  0  0  0  0  0  0  0  0
  -35.3833    6.0132  -42.9700 C   0  0  0  0  0  0  0  0  0  0  0  0
  -36.6554    5.2624  -42.5668 C   0  0  0  0  0  0  0  0  0  0  0  0
  -37.0433    4.2897  -43.6827 C   0  0  0  0  0  0  0  0  0  0  0  0
  -35.9453    3.3417  -43.9110 N   0  0  0  0  0  0  0  0  0  0  0  0
  -34.7262    4.0356  -44.3451 C   0  0  0  0  0  0  0  0  0  0  0  0
  -34.2692    5.0007  -43.2489 C   0  0  0  0  0  0  0  0  0  0  0  0
  -36.3354    2.3076  -44.8786 C   0  0  0  0  0  0  0  0  0  0  0  0
  -36.6503    2.9456  -46.2500 C   0  0  0  0  0  0  0  0  0  0  0  0
  -37.9735    2.2494  -46.6420 C   0  0  0  0  0  0  0  0  0  0  0  0
  -38.5860    1.8889  -45.3686 O   0  0  0  0  0  0  0  0  0  0  0  0
  -37.6339    1.6456  -44.4567 C   0  0  0  0  0  0  0  0  0  0  0  0
  -37.7872    0.9981  -43.4481 O   0  0  0  0  0  0  0  0  0  0  0  0
  -34.5536    6.0158  -40.4813 X   0  0  0  0  0  0  0  0  0  0  0  0
  1  2  1  0  0  0  0
  1 14  1  0  0  0  0
  2  3  1  0  0  0  0
  2  7  1  0  0  0  0
  3  4  1  0  0  0  0
  4  5  1  0  0  0  0
  5  6  1  0  0  0  0
  5  8  1  0  0  0  0
  6  7  1  0  0  0  0
  8  9  1  0  0  0  0
  8 12  1  0  0  0  0
  9 10  1  0  0  0  0
 10 11  1  0  0  0  0
 11 12  1  0  0  0  0
 12 13  2  0  0  0  0
M  END
> <Index>
17406

> <PropertyFieldDistance>
nan

$$$$
7692126
BBcorina  12272117083D 1   1.00000     0.00000 
CORINA 4.3.0 0026  30.10.2019
 11 11  0  0  0  0  0  0  0  0999 V2000
  -38.4156    4.0819  -44.0739 C   0  0  0  0  0  0  0  0  0  0  0  0
  -36.9707    4.4564  -43.8671 C   0  0  0  0  0  0  0  0  0  0  0  0
  -36.6613    5.6763  -43.3726 C   0  0  0  0  0  0  0  0  0  0  0  0
  -35.3195    6.0349  -43.1768 C   0  0  0  0  0  0  0  0  0  0  0  0
  -34.3353    5.1407  -43.4968 C   0  0  0  0  0  0  0  0  0  0  0  0
  -32.9876    5.4756  -43.3165 N   0  0  0  0  0  0  0  0  0  0  0  0
  -34.6949    3.8735  -44.0063 C   0  0  0  0  0  0  0  0  0  0  0  0
  -33.8292    3.0621  -44.2927 O   0  0  0  0  0  0  0  0  0  0  0  0
  -35.9938    3.5633  -44.1808 N   0  0  0  0  0  0  0  0  0  0  0  0
  -36.3588    2.2490  -44.7149 C   0  0  0  0  0  0  0  0  0  0  0  0
  -32.5640    7.0106  -42.6930 X   0  0  0  0  0  0  0  0  0  0  0  0
  1  2  1  0  0  0  0
  2  3  2  0  0  0  0
  2  9  1  0  0  0  0
  3  4  1  0  0  0  0
  4  5  2  0  0  0  0
  5  6  1  0  0  0  0
  5  7  1  0  0  0  0
  6 11  1  0  0  0  0
  7  8  2  0  0  0  0
  7  9  1  0  0  0  0
  9 10  1  0  0  0  0
M  END
> <Index>
17408

> <PropertyFieldDistance>
nan

$$$$
15766654
BBcorina  12272117083D 1   1.00000     0.00000 
CORINA 4.3.0 0026  30.10.2019
 10 10  0  0  0  0  0  0  0  0999 V2000
  -33.7103    7.2834  -41.6116 C   0  0  0  0  0  0  0  0  0  0  0  0
  -34.9628    6.5332  -41.4499 N   0  0  0  0  0  0  0  0  0  0  0  0
  -36.0367    7.4028  -40.9511 C   0  0  0  0  0  0  0  0  0  0  0  0
  -35.3535    5.8832  -42.7080 C   0  0  0  0  0  0  0  0  0  0  0  0
  -36.6587    5.1099  -42.5007 C   0  0  0  0  0  0  0  0  0  0  0  0
  -37.0290    4.3869  -43.7977 C   0  0  0  0  0  0  0  0  0  0  0  0
  -35.9480    3.4664  -44.1723 N   0  0  0  0  0  0  0  0  0  0  0  0
  -34.6958    4.1916  -44.4226 C   0  0  0  0  0  0  0  0  0  0  0  0
  -34.2558    4.9088  -43.1443 C   0  0  0  0  0  0  0  0  0  0  0  0
  -36.3899    2.5209  -45.5269 X   0  0  0  0  0  0  0  0  0  0  0  0
  1  2  1  0  0  0  0
  2  3  1  0  0  0  0
  2  4  1  0  0  0  0
  4  5  1  0  0  0  0
  4  9  1  0  0  0  0
  5  6  1  0  0  0  0
  6  7  1  0  0  0  0
  7  8  1  0  0  0  0
  7 10  1  0  0  0  0
  8  9  1  0  0  0  0
M  END
> <Index>
17413

> <PropertyFieldDistance>
nan

$$$$
7841320
BBcorina  12272117083D 1   1.00000     0.00000 
CORINA 4.3.0 0026  30.10.2019
 11 11  0  0  0  0  0  0  0  0999 V2000
  -35.7311    8.6091  -39.7480 O   0  0  0  0  0  0  0  0  0  0  0  0
  -34.8966    7.5615  -39.2498 C   0  0  0  0  0  0  0  0  0  0  0  0
  -35.2557    6.2480  -39.9474 C   0  0  0  0  0  0  0  0  0  0  0  0
  -34.9470    6.3478  -41.3390 O   0  0  0  0  0  0  0  0  0  0  0  0
  -35.2462    5.1675  -42.0868 C   0  0  0  0  0  0  0  0  0  0  0  0
  -36.6793    5.2476  -42.6203 C   0  0  0  0  0  0  0  0  0  0  0  0
  -36.9723    4.0086  -43.4694 C   0  0  0  0  0  0  0  0  0  0  0  0
  -36.0191    3.9414  -44.5845 N   0  0  0  0  0  0  0  0  0  0  0  0
  -34.6396    3.8164  -44.0971 C   0  0  0  0  0  0  0  0  0  0  0  0
  -34.2769    5.0496  -43.2664 C   0  0  0  0  0  0  0  0  0  0  0  0
  -36.4111    2.6624  -45.6495 X   0  0  0  0  0  0  0  0  0  0  0  0
  1  2  1  0  0  0  0
  2  3  1  0  0  0  0
  3  4  1  0  0  0  0
  4  5  1  0  0  0  0
  5  6  1  0  0  0  0
  5 10  1  0  0  0  0
  6  7  1  0  0  0  0
  7  8  1  0  0  0  0
  8  9  1  0  0  0  0
  8 11  1  0  0  0  0
  9 10  1  0  0  0  0
M  END
> <Index>
17430

> <PropertyFieldDistance>
nan

$$$$
7641246
BBcorina  12272117083D 1   1.00000     0.00000 
CORINA 4.3.0 0026  30.10.2019
 16 17  0  0  0  0  0  0  0  0999 V2000
  -35.5890    1.5697  -45.6056 C   0  0  0  0  0  0  0  0  0  0  0  0
  -36.6655    2.5350  -45.1054 C   0  0  0  0  0  0  0  0  0  0  0  0
  -36.1041    3.3913  -44.0521 N   0  0  0  0  0  0  0  0  0  0  0  0
  -37.0915    4.3764  -43.5926 C   0  0  0  0  0  0  0  0  0  0  0  0
  -36.5245    5.1514  -42.4010 C   0  0  0  0  0  0  0  0  0  0  0  0
  -35.2324    5.8554  -42.8244 C   0  0  0  0  0  0  0  0  0  0  0  0
  -34.2388    4.8125  -43.3440 C   0  0  0  0  0  0  0  0  0  0  0  0
  -34.8721    4.0475  -44.5083 C   0  0  0  0  0  0  0  0  0  0  0  0
  -34.6532    6.5546  -41.6696 N   0  0  0  0  0  0  0  0  0  0  0  0
  -37.8254    1.7497  -44.5493 C   0  0  0  0  0  0  0  0  0  0  0  0
  -39.0186    1.6547  -45.2488 C   0  0  0  0  0  0  0  0  0  0  0  0
  -40.0603    0.9254  -44.7076 C   0  0  0  0  0  0  0  0  0  0  0  0
  -39.9288    0.3250  -43.5409 N   0  0  0  0  0  0  0  0  0  0  0  0
  -38.8088    0.3938  -42.8481 C   0  0  0  0  0  0  0  0  0  0  0  0
  -37.7224    1.1002  -43.3286 C   0  0  0  0  0  0  0  0  0  0  0  0
  -34.1908    5.4471  -40.4515 X   0  0  0  0  0  0  0  0  0  0  0  0
  1  2  1  0  0  0  0
  2  3  1  0  0  0  0
  2 10  1  0  0  0  0
  3  4  1  0  0  0  0
  3  8  1  0  0  0  0
  4  5  1  0  0  0  0
  5  6  1  0  0  0  0
  6  7  1  0  0  0  0
  6  9  1  0  0  0  0
  7  8  1  0  0  0  0
  9 16  1  0  0  0  0
 10 11  2  0  0  0  0
 10 15  1  0  0  0  0
 11 12  1  0  0  0  0
 12 13  2  0  0  0  0
 13 14  1  0  0  0  0
 14 15  2  0  0  0  0
M  END
> <Index>
17443

> <PropertyFieldDistance>
nan

$$$$
12851348
BBcorina  12272117083D 1   1.00000     0.00000 
CORINA 4.3.0 0026  30.10.2019
 10 10  0  0  0  0  0  0  0  0999 V2000
  -37.3284    6.4966  -40.7108 F   0  0  0  0  0  0  0  0  0  0  0  0
  -37.5654    5.3150  -41.4213 C   0  0  0  0  0  0  0  0  0  0  0  0
  -38.8941    5.2924  -41.8585 F   0  0  0  0  0  0  0  0  0  0  0  0
  -36.6296    5.2502  -42.6299 C   0  0  0  0  0  0  0  0  0  0  0  0
  -36.9723    4.0214  -43.4764 C   0  0  0  0  0  0  0  0  0  0  0  0
  -36.0214    3.9202  -44.5931 N   0  0  0  0  0  0  0  0  0  0  0  0
  -34.6419    3.8203  -44.0951 C   0  0  0  0  0  0  0  0  0  0  0  0
  -34.3221    5.0515  -43.2432 C   0  0  0  0  0  0  0  0  0  0  0  0
  -35.2751    5.1511  -42.1815 O   0  0  0  0  0  0  0  0  0  0  0  0
  -36.4046    2.5971  -45.6063 X   0  0  0  0  0  0  0  0  0  0  0  0
  1  2  1  0  0  0  0
  2  3  1  0  0  0  0
  2  4  1  0  0  0  0
  4  5  1  0  0  0  0
  4  9  1  0  0  0  0
  5  6  1  0  0  0  0
  6  7  1  0  0  0  0
  6 10  1  0  0  0  0
  7  8  1  0  0  0  0
  8  9  1  0  0  0  0
M  END
> <Index>
17471

> <PropertyFieldDistance>
nan

$$$$
12430616
BBcorina  12272117083D 1   1.00000     0.00000 
CORINA 4.3.0 0026  30.10.2019
 14 15  0  0  0  0  0  0  0  0999 V2000
  -36.3496    2.3570  -44.9464 C   0  0  0  0  0  0  0  0  0  0  0  0
  -36.0372    3.6631  -44.3508 N   0  0  0  0  0  0  0  0  0  0  0  0
  -36.9513    3.9682  -43.2428 C   0  0  0  0  0  0  0  0  0  0  0  0
  -36.6923    5.3915  -42.7433 C   0  0  0  0  0  0  0  0  0  0  0  0
  -35.2385    5.5066  -42.2767 C   0  0  0  0  0  0  0  0  0  0  0  0
  -34.3081    5.1368  -43.4351 C   0  0  0  0  0  0  0  0  0  0  0  0
  -34.6362    3.7211  -43.9147 C   0  0  0  0  0  0  0  0  0  0  0  0
  -34.9683    6.8824  -41.8517 N   0  0  0  0  0  0  0  0  0  0  0  0
  -34.6038    7.9130  -42.6602 C   0  0  0  0  0  0  0  0  0  0  0  0
  -34.4514    9.0120  -41.8787 C   0  0  0  0  0  0  0  0  0  0  0  0
  -34.0789   10.2966  -42.3184 N   0  0  0  0  0  0  0  0  0  0  0  0
  -34.7311    8.6411  -40.5557 C   0  0  0  0  0  0  0  0  0  0  0  0
  -35.0454    7.3709  -40.5411 N   0  0  0  0  0  0  0  0  0  0  0  0
  -33.7728   10.5771  -43.9773 X   0  0  0  0  0  0  0  0  0  0  0  0
  1  2  1  0  0  0  0
  2  3  1  0  0  0  0
  2  7  1  0  0  0  0
  3  4  1  0  0  0  0
  4  5  1  0  0  0  0
  5  6  1  0  0  0  0
  5  8  1  0  0  0  0
  6  7  1  0  0  0  0
  8  9  1  0  0  0  0
  8 13  1  0  0  0  0
  9 10  2  0  0  0  0
 10 11  1  0  0  0  0
 10 12  1  0  0  0  0
 11 14  1  0  0  0  0
 12 13  2  0  0  0  0
M  END
> <Index>
17483

> <PropertyFieldDistance>
nan

$$$$
13262564
BBcorina  12272117083D 1   1.00000     0.00000 
CORINA 4.3.0 0026  30.10.2019
 10 10  0  0  0  0  0  0  0  0999 V2000
  -36.0172    3.5927  -44.4913 N   0  0  0  0  0  0  0  0  0  0  0  0
  -36.3933    2.1751  -44.5752 C   0  0  0  0  0  0  0  0  0  0  0  0
  -36.1059    1.6538  -45.9847 C   0  0  0  0  0  0  0  0  0  0  0  0
  -34.6188    1.7913  -46.2593 C   0  0  0  0  0  0  0  0  0  0  0  0
  -34.3044    1.4604  -47.7204 C   0  0  0  0  0  0  0  0  0  0  0  0
  -34.1166   -0.0363  -47.8472 C   0  0  0  0  0  0  0  0  0  0  0  0
  -35.1336   -0.8335  -47.7593 C   0  0  0  0  0  0  0  0  0  0  0  0
  -36.5230   -0.2787  -47.5293 C   0  0  0  0  0  0  0  0  0  0  0  0
  -36.6147    0.2268  -46.0878 C   0  0  0  0  0  0  0  0  0  0  0  0
  -36.3230    4.2163  -42.9287 X   0  0  0  0  0  0  0  0  0  0  0  0
  1  2  1  0  0  0  0
  1 10  1  0  0  0  0
  2  3  1  0  0  0  0
  3  4  1  0  0  0  0
  3  9  1  0  0  0  0
  4  5  1  0  0  0  0
  5  6  1  0  0  0  0
  6  7  2  0  0  0  0
  7  8  1  0  0  0  0
  8  9  1  0  0  0  0
M  END
> <Index>
17505

> <PropertyFieldDistance>
nan

$$$$
12911028
BBcorina  12272117083D 1   1.00000     0.00000 
CORINA 4.3.0 0026  30.10.2019
 11 11  0  0  0  0  0  0  0  0999 V2000
  -35.5414    6.8749  -43.7195 O   0  0  0  0  0  0  0  0  0  0  0  0
  -35.3534    5.8832  -42.7080 C   0  0  0  0  0  0  0  0  0  0  0  0
  -34.9458    6.5589  -41.3972 C   0  0  0  0  0  0  0  0  0  0  0  0
  -33.6910    7.3019  -41.5977 C   0  0  0  0  0  0  0  0  0  0  0  0
  -32.6903    7.8944  -41.7576 C   0  0  0  0  0  0  0  0  0  0  0  0
  -36.6587    5.1099  -42.5008 C   0  0  0  0  0  0  0  0  0  0  0  0
  -37.0290    4.3869  -43.7977 C   0  0  0  0  0  0  0  0  0  0  0  0
  -35.9479    3.4664  -44.1723 N   0  0  0  0  0  0  0  0  0  0  0  0
  -34.6959    4.1916  -44.4227 C   0  0  0  0  0  0  0  0  0  0  0  0
  -34.2558    4.9088  -43.1443 C   0  0  0  0  0  0  0  0  0  0  0  0
  -36.3899    2.5210  -45.5269 X   0  0  0  0  0  0  0  0  0  0  0  0
  1  2  1  0  0  0  0
  2  3  1  0  0  0  0
  2  6  1  0  0  0  0
  2 10  1  0  0  0  0
  3  4  1  0  0  0  0
  4  5  3  0  0  0  0
  6  7  1  0  0  0  0
  7  8  1  0  0  0  0
  8  9  1  0  0  0  0
  8 11  1  0  0  0  0
  9 10  1  0  0  0  0
M  END
> <Index>
17510

> <PropertyFieldDistance>
nan

$$$$
10154288
BBcorina  12272117083D 1   1.00000     0.00000 
CORINA 4.3.0 0026  30.10.2019
 16 17  0  0  0  0  0  0  0  0999 V2000
  -34.6750    0.1966  -49.3242 Cl  0  0  0  0  0  0  0  0  0  0  0  0
  -34.8527    0.8783  -47.7376 C   0  0  0  0  0  0  0  0  0  0  0  0
  -33.9202    0.8647  -46.7544 C   0  0  0  0  0  0  0  0  0  0  0  0
  -34.4246    1.4928  -45.6632 N   0  0  0  0  0  0  0  0  0  0  0  0
  -35.7040    1.9122  -45.9491 C   0  0  0  0  0  0  0  0  0  0  0  0
  -35.9839    1.5387  -47.2467 C   0  0  0  0  0  0  0  0  0  0  0  0
  -36.6047    2.6289  -45.0401 C   0  0  0  0  0  0  0  0  0  0  0  0
  -37.8088    2.5726  -45.2071 O   0  0  0  0  0  0  0  0  0  0  0  0
  -36.0987    3.3497  -44.0198 N   0  0  0  0  0  0  0  0  0  0  0  0
  -36.9866    3.9503  -43.0149 C   0  0  0  0  0  0  0  0  0  0  0  0
  -36.6773    5.4473  -42.9155 C   0  0  0  0  0  0  0  0  0  0  0  0
  -35.1857    5.6382  -42.6307 C   0  0  0  0  0  0  0  0  0  0  0  0
  -34.3657    5.0509  -43.7817 C   0  0  0  0  0  0  0  0  0  0  0  0
  -34.6485    3.5446  -43.8879 C   0  0  0  0  0  0  0  0  0  0  0  0
  -34.8917    7.0716  -42.5017 N   0  0  0  0  0  0  0  0  0  0  0  0
  -35.3878    7.9269  -43.8968 X   0  0  0  0  0  0  0  0  0  0  0  0
  1  2  1  0  0  0  0
  2  3  2  0  0  0  0
  2  6  1  0  0  0  0
  3  4  1  0  0  0  0
  4  5  1  0  0  0  0
  5  6  2  0  0  0  0
  5  7  1  0  0  0  0
  7  8  2  0  0  0  0
  7  9  1  0  0  0  0
  9 10  1  0  0  0  0
  9 14  1  0  0  0  0
 10 11  1  0  0  0  0
 11 12  1  0  0  0  0
 12 13  1  0  0  0  0
 12 15  1  0  0  0  0
 13 14  1  0  0  0  0
 15 16  1  0  0  0  0
M  END
> <Index>
17526

> <PropertyFieldDistance>
nan

$$$$
12914632
BBcorina  12272117083D 1   1.00000     0.00000 
CORINA 4.3.0 0026  30.10.2019
  8  8  0  0  0  0  0  0  0  0999 V2000
  -34.9728    6.5142  -41.4836 O   0  0  0  0  0  0  0  0  0  0  0  0
  -35.3535    5.8833  -42.7079 C   0  0  0  0  0  0  0  0  0  0  0  0
  -36.6585    5.1099  -42.5008 C   0  0  0  0  0  0  0  0  0  0  0  0
  -37.0291    4.3869  -43.7977 C   0  0  0  0  0  0  0  0  0  0  0  0
  -35.9480    3.4664  -44.1723 N   0  0  0  0  0  0  0  0  0  0  0  0
  -34.6958    4.1916  -44.4226 C   0  0  0  0  0  0  0  0  0  0  0  0
  -34.2559    4.9088  -43.1442 C   0  0  0  0  0  0  0  0  0  0  0  0
  -36.3899    2.5211  -45.5270 X   0  0  0  0  0  0  0  0  0  0  0  0
  1  2  1  0  0  0  0
  2  3  1  0  0  0  0
  2  7  1  0  0  0  0
  3  4  1  0  0  0  0
  4  5  1  0  0  0  0
  5  6  1  0  0  0  0
  5  8  1  0  0  0  0
  6  7  1  0  0  0  0
M  END
> <Index>
17531

> <PropertyFieldDistance>
nan

$$$$
13429930
BBcorina  12272117083D 1   1.00000     0.00000 
CORINA 4.3.0 0026  30.10.2019
 12 12  0  0  0  0  0  0  0  0999 V2000
  -35.7794    3.6436  -43.6711 N   0  0  0  0  0  0  0  0  0  0  0  0
  -36.9201    4.6178  -43.7738 C   0  0  0  0  0  0  0  0  0  0  0  0
  -37.5507    4.7520  -42.3891 C   0  0  0  0  0  0  0  0  0  0  0  0
  -37.4706    6.2068  -41.9233 C   0  0  0  0  0  0  0  0  0  0  0  0
  -36.7874    6.2718  -40.5563 C   0  0  0  0  0  0  0  0  0  0  0  0
  -35.3089    6.6211  -40.7375 C   0  0  0  0  0  0  0  0  0  0  0  0
  -34.6588    5.5589  -41.5303 N   0  0  0  0  0  0  0  0  0  0  0  0
  -34.2280    5.8952  -42.7773 C   0  0  0  0  0  0  0  0  0  0  0  0
  -34.3212    7.0344  -43.1819 O   0  0  0  0  0  0  0  0  0  0  0  0
  -33.6283    4.8242  -43.6532 C   0  0  0  0  0  0  0  0  0  0  0  0
  -34.7088    4.2260  -44.5505 C   0  0  0  0  0  0  0  0  0  0  0  0
  -36.3219    2.2101  -44.4916 X   0  0  0  0  0  0  0  0  0  0  0  0
  1  2  1  0  0  0  0
  1 11  1  0  0  0  0
  1 12  1  0  0  0  0
  2  3  1  0  0  0  0
  3  4  1  0  0  0  0
  4  5  1  0  0  0  0
  5  6  1  0  0  0  0
  6  7  1  0  0  0  0
  7  8  1  0  0  0  0
  8  9  2  0  0  0  0
  8 10  1  0  0  0  0
 10 11  1  0  0  0  0
M  END
> <Index>
17545

> <PropertyFieldDistance>
nan

$$$$
13426322
BBcorina  12272117083D 1   1.00000     0.00000 
CORINA 4.3.0 0026  30.10.2019
 10 10  0  0  0  0  0  0  0  0999 V2000
  -33.8262    2.5064  -45.6017 C   0  0  0  0  0  0  0  0  0  0  0  0
  -34.5423    2.9998  -44.3429 C   0  0  0  0  0  0  0  0  0  0  0  0
  -33.8042    2.4943  -43.1017 C   0  0  0  0  0  0  0  0  0  0  0  0
  -35.9811    2.4765  -44.3328 C   0  0  0  0  0  0  0  0  0  0  0  0
  -36.6832    2.9076  -43.0487 C   0  0  0  0  0  0  0  0  0  0  0  0
  -36.9504    4.4098  -43.0542 C   0  0  0  0  0  0  0  0  0  0  0  0
  -35.6336    5.1754  -42.9003 C   0  0  0  0  0  0  0  0  0  0  0  0
  -34.5753    4.8170  -44.3338 S   0  0  0  0  0  0  0  0  0  0  0  0
  -37.9595    2.1896  -42.9323 N   0  0  0  0  0  0  0  0  0  0  0  0
  -38.9934    2.5615  -44.2426 X   0  0  0  0  0  0  0  0  0  0  0  0
  1  2  1  0  0  0  0
  2  3  1  0  0  0  0
  2  4  1  0  0  0  0
  2  8  1  0  0  0  0
  4  5  1  0  0  0  0
  5  6  1  0  0  0  0
  5  9  1  0  0  0  0
  6  7  1  0  0  0  0
  7  8  1  0  0  0  0
  9 10  1  0  0  0  0
M  END
> <Index>
17549

> <PropertyFieldDistance>
nan

$$$$
17759188
BBcorina  12272117083D 1   1.00000     0.00000 
CORINA 4.3.0 0026  30.10.2019
  8  9  0  0  0  0  0  0  0  0999 V2000
  -35.9366    2.8554  -41.2051 C   0  0  0  0  0  0  0  0  0  0  0  0
  -35.6878    4.3510  -41.4102 C   0  0  0  0  0  0  0  0  0  0  0  0
  -36.4313    5.0387  -42.5571 C   0  0  0  0  0  0  0  0  0  0  0  0
  -37.0719    4.1506  -43.6453 C   0  0  0  0  0  0  0  0  0  0  0  0
  -35.9864    3.9297  -44.6351 N   0  0  0  0  0  0  0  0  0  0  0  0
  -34.7681    3.7441  -43.8055 C   0  0  0  0  0  0  0  0  0  0  0  0
  -34.9157    4.7712  -42.6624 C   0  0  0  0  0  0  0  0  0  0  0  0
  -36.2972    2.5430  -45.5863 X   0  0  0  0  0  0  0  0  0  0  0  0
  1  2  1  0  0  0  0
  2  3  1  0  0  0  0
  2  7  1  0  0  0  0
  3  4  1  0  0  0  0
  3  7  1  0  0  0  0
  4  5  1  0  0  0  0
  5  6  1  0  0  0  0
  5  8  1  0  0  0  0
  6  7  1  0  0  0  0
M  END
> <Index>
17551

> <PropertyFieldDistance>
nan

$$$$
17847196
BBcorina  12272117083D 1   1.00000     0.00000 
CORINA 4.3.0 0026  30.10.2019
 11 11  0  0  0  0  0  0  0  0999 V2000
  -36.3258    2.4444  -45.0971 C   0  0  0  0  0  0  0  0  0  0  0  0
  -36.0592    3.1991  -43.8654 N   0  0  0  0  0  0  0  0  0  0  0  0
  -37.0922    4.2439  -43.6471 C   0  0  0  0  0  0  0  0  0  0  0  0
  -36.3980    5.2312  -42.6757 C   0  0  0  0  0  0  0  0  0  0  0  0
  -37.0155    6.6265  -42.7890 C   0  0  0  0  0  0  0  0  0  0  0  0
  -38.3600    6.6165  -42.1973 N   0  0  0  0  0  0  0  0  0  0  0  0
  -34.9353    5.2380  -43.1762 C   0  0  0  0  0  0  0  0  0  0  0  0
  -34.7700    3.9186  -43.9531 C   0  0  0  0  0  0  0  0  0  0  0  0
  -34.4366    4.2140  -45.4169 C   0  0  0  0  0  0  0  0  0  0  0  0
  -33.6560    3.0795  -43.3241 C   0  0  0  0  0  0  0  0  0  0  0  0
  -39.0877    8.1603  -42.3033 X   0  0  0  0  0  0  0  0  0  0  0  0
  1  2  1  0  0  0  0
  2  3  1  0  0  0  0
  2  8  1  0  0  0  0
  3  4  1  0  0  0  0
  4  5  1  0  0  0  0
  4  7  1  0  0  0  0
  5  6  1  0  0  0  0
  6 11  1  0  0  0  0
  7  8  1  0  0  0  0
  8  9  1  0  0  0  0
  8 10  1  0  0  0  0
M  END
> <Index>
17567

> <PropertyFieldDistance>
nan

$$$$
15558586
BBcorina  12272117083D 1   1.00000     0.00000 
CORINA 4.3.0 0026  30.10.2019
 12 13  0  0  0  0  0  0  0  0999 V2000
  -38.7012    2.5832  -44.4543 N   0  0  0  0  0  0  0  0  0  0  0  0
  -38.1260    3.2450  -43.2758 C   0  0  0  0  0  0  0  0  0  0  0  0
  -37.1133    4.2997  -43.7266 C   0  0  0  0  0  0  0  0  0  0  0  0
  -36.6040    5.0768  -42.5078 C   0  0  0  0  0  0  0  0  0  0  0  0
  -35.4227    5.9595  -42.9216 C   0  0  0  0  0  0  0  0  0  0  0  0
  -34.2166    5.0694  -43.2475 C   0  0  0  0  0  0  0  0  0  0  0  0
  -34.6773    3.9722  -44.1777 C   0  0  0  0  0  0  0  0  0  0  0  0
  -33.9353    3.1934  -44.9093 N   0  0  0  0  0  0  0  0  0  0  0  0
  -34.7231    2.3510  -45.5972 C   0  0  0  0  0  0  0  0  0  0  0  0
  -36.0048    2.6206  -45.2764 C   0  0  0  0  0  0  0  0  0  0  0  0
  -35.9761    3.6455  -44.3781 N   0  0  0  0  0  0  0  0  0  0  0  0
  -39.8409    1.3943  -43.9943 X   0  0  0  0  0  0  0  0  0  0  0  0
  1  2  1  0  0  0  0
  1 12  1  0  0  0  0
  2  3  1  0  0  0  0
  3  4  1  0  0  0  0
  3 11  1  0  0  0  0
  4  5  1  0  0  0  0
  5  6  1  0  0  0  0
  6  7  1  0  0  0  0
  7  8  2  0  0  0  0
  7 11  1  0  0  0  0
  8  9  1  0  0  0  0
  9 10  2  0  0  0  0
 10 11  1  0  0  0  0
M  END
> <Index>
17569

> <PropertyFieldDistance>
nan

$$$$
17786612
BBcorina  12272117083D 1   1.00000     0.00000 
CORINA 4.3.0 0026  30.10.2019
 12 13  0  0  0  0  0  0  0  0999 V2000
  -36.0173    3.5927  -44.4913 N   0  0  0  0  0  0  0  0  0  0  0  0
  -36.3933    2.1751  -44.5752 C   0  0  0  0  0  0  0  0  0  0  0  0
  -36.1059    1.6538  -45.9847 C   0  0  0  0  0  0  0  0  0  0  0  0
  -37.0233    2.3591  -46.9908 C   0  0  0  0  0  0  0  0  0  0  0  0
  -36.8219    1.7356  -48.3743 C   0  0  0  0  0  0  0  0  0  0  0  0
  -37.1307    0.3416  -48.3237 O   0  0  0  0  0  0  0  0  0  0  0  0
  -36.2790   -0.4135  -47.4567 C   0  0  0  0  0  0  0  0  0  0  0  0
  -36.3787    0.1509  -46.0408 C   0  0  0  0  0  0  0  0  0  0  0  0
  -35.5915   -0.6550  -45.0006 C   0  0  0  0  0  0  0  0  0  0  0  0
  -36.8673   -1.4923  -44.8042 C   0  0  0  0  0  0  0  0  0  0  0  0
  -37.6553   -0.2679  -45.3014 C   0  0  0  0  0  0  0  0  0  0  0  0
  -36.3231    4.2164  -42.9287 X   0  0  0  0  0  0  0  0  0  0  0  0
  1  2  1  0  0  0  0
  1 12  1  0  0  0  0
  2  3  1  0  0  0  0
  3  4  1  0  0  0  0
  3  8  1  0  0  0  0
  4  5  1  0  0  0  0
  5  6  1  0  0  0  0
  6  7  1  0  0  0  0
  7  8  1  0  0  0  0
  8  9  1  0  0  0  0
  8 11  1  0  0  0  0
  9 10  1  0  0  0  0
 10 11  1  0  0  0  0
M  END
> <Index>
17573

> <PropertyFieldDistance>
nan

$$$$
12335898
BBcorina  12272117083D 1   1.00000     0.00000 
CORINA 4.3.0 0026  30.10.2019
 12 13  0  0  0  0  0  0  0  0999 V2000
  -36.3225    2.2742  -44.8896 C   0  0  0  0  0  0  0  0  0  0  0  0
  -36.0774    3.6553  -44.4534 N   0  0  0  0  0  0  0  0  0  0  0  0
  -37.0691    4.0744  -43.4304 C   0  0  0  0  0  0  0  0  0  0  0  0
  -36.4076    5.2630  -42.7041 C   0  0  0  0  0  0  0  0  0  0  0  0
  -36.8986    6.6204  -43.2111 C   0  0  0  0  0  0  0  0  0  0  0  0
  -36.6115    5.0948  -41.1841 C   0  0  0  0  0  0  0  0  0  0  0  0
  -35.2896    5.4121  -40.5862 N   0  0  0  0  0  0  0  0  0  0  0  0
  -34.3110    4.7907  -41.5146 C   0  0  0  0  0  0  0  0  0  0  0  0
  -34.8808    5.0608  -42.9227 C   0  0  0  0  0  0  0  0  0  0  0  0
  -34.2115    6.2571  -43.6024 C   0  0  0  0  0  0  0  0  0  0  0  0
  -34.7686    3.7704  -43.7609 C   0  0  0  0  0  0  0  0  0  0  0  0
  -35.1518    4.7481  -39.0163 X   0  0  0  0  0  0  0  0  0  0  0  0
  1  2  1  0  0  0  0
  2  3  1  0  0  0  0
  2 11  1  0  0  0  0
  3  4  1  0  0  0  0
  4  5  1  0  0  0  0
  4  6  1  0  0  0  0
  4  9  1  0  0  0  0
  6  7  1  0  0  0  0
  7  8  1  0  0  0  0
  7 12  1  0  0  0  0
  8  9  1  0  0  0  0
  9 10  1  0  0  0  0
  9 11  1  0  0  0  0
M  END
> <Index>
17623

> <PropertyFieldDistance>
nan

$$$$
13313564
BBcorina  12272117083D 1   1.00000     0.00000 
CORINA 4.3.0 0026  30.10.2019
 11 12  0  0  0  0  0  0  0  0999 V2000
  -36.0173    3.5927  -44.4913 N   0  0  0  0  0  0  0  0  0  0  0  0
  -36.3933    2.1751  -44.5753 C   0  0  0  0  0  0  0  0  0  0  0  0
  -36.1059    1.6538  -45.9846 C   0  0  0  0  0  0  0  0  0  0  0  0
  -34.5761    1.6202  -46.2062 C   0  0  0  0  0  0  0  0  0  0  0  0
  -33.9082    0.6134  -45.2678 C   0  0  0  0  0  0  0  0  0  0  0  0
  -34.5792   -0.7605  -45.4412 C   0  0  0  0  0  0  0  0  0  0  0  0
  -36.0405   -0.6070  -44.9414 C   0  0  0  0  0  0  0  0  0  0  0  0
  -36.6361    0.2141  -46.1210 C   0  0  0  0  0  0  0  0  0  0  0  0
  -35.9181   -0.4184  -47.3378 C   0  0  0  0  0  0  0  0  0  0  0  0
  -34.7026   -1.0065  -46.8582 O   0  0  0  0  0  0  0  0  0  0  0  0
  -36.3231    4.2164  -42.9287 X   0  0  0  0  0  0  0  0  0  0  0  0
  1  2  1  0  0  0  0
  1 11  1  0  0  0  0
  2  3  1  0  0  0  0
  3  4  1  0  0  0  0
  3  8  1  0  0  0  0
  4  5  1  0  0  0  0
  5  6  1  0  0  0  0
  6  7  1  0  0  0  0
  6 10  1  0  0  0  0
  7  8  1  0  0  0  0
  8  9  1  0  0  0  0
  9 10  1  0  0  0  0
M  END
> <Index>
17631

> <PropertyFieldDistance>
nan

$$$$
13423768
BBcorina  12272117083D 1   1.00000     0.00000 
CORINA 4.3.0 0026  30.10.2019
 10 11  0  0  0  0  0  0  0  0999 V2000
  -36.8676    3.9257  -45.7244 N   0  0  0  0  0  0  0  0  0  0  0  0
  -36.1359    3.4559  -44.5404 C   0  0  0  0  0  0  0  0  0  0  0  0
  -36.1152    1.9314  -44.5488 C   0  0  0  0  0  0  0  0  0  0  0  0
  -35.4424    1.4224  -43.2515 C   0  0  0  0  0  0  0  0  0  0  0  0
  -35.9165    2.3928  -42.1402 C   0  0  0  0  0  0  0  0  0  0  0  0
  -35.0790    3.6843  -42.1441 C   0  0  0  0  0  0  0  0  0  0  0  0
  -33.9969    3.6691  -43.2533 C   0  0  0  0  0  0  0  0  0  0  0  0
  -34.7400    4.0690  -44.5504 C   0  0  0  0  0  0  0  0  0  0  0  0
  -33.6613    1.8647  -43.4312 S   0  0  0  0  0  0  0  0  0  0  0  0
  -37.6393    5.4200  -45.4149 X   0  0  0  0  0  0  0  0  0  0  0  0
  1  2  1  0  0  0  0
  1 10  1  0  0  0  0
  2  3  1  0  0  0  0
  2  8  1  0  0  0  0
  3  4  1  0  0  0  0
  4  5  1  0  0  0  0
  4  9  1  0  0  0  0
  5  6  1  0  0  0  0
  6  7  1  0  0  0  0
  7  8  1  0  0  0  0
  7  9  1  0  0  0  0
M  END
> <Index>
17635

> <PropertyFieldDistance>
nan

$$$$
7286336
BBcorina  12272117083D 1   1.00000     0.00000 
CORINA 4.3.0 0026  30.10.2019
 13 14  0  0  0  0  0  0  0  0999 V2000
  -36.0087    3.6126  -44.3879 N   0  0  0  0  0  0  0  0  0  0  0  0
  -37.0095    4.4890  -43.7635 C   0  0  0  0  0  0  0  0  0  0  0  0
  -36.5702    4.8249  -42.3364 C   0  0  0  0  0  0  0  0  0  0  0  0
  -35.2534    5.4762  -42.3725 N   0  0  0  0  0  0  0  0  0  0  0  0
  -34.2525    4.5999  -42.9970 C   0  0  0  0  0  0  0  0  0  0  0  0
  -34.6919    4.2641  -44.4241 C   0  0  0  0  0  0  0  0  0  0  0  0
  -34.8300    5.8830  -41.0259 C   0  0  0  0  0  0  0  0  0  0  0  0
  -33.4581    6.5558  -41.1040 C   0  0  0  0  0  0  0  0  0  0  0  0
  -33.0173    6.9793  -39.7014 C   0  0  0  0  0  0  0  0  0  0  0  0
  -32.9300    5.7461  -38.8001 C   0  0  0  0  0  0  0  0  0  0  0  0
  -34.3019    5.0733  -38.7220 C   0  0  0  0  0  0  0  0  0  0  0  0
  -34.7428    4.6498  -40.1245 C   0  0  0  0  0  0  0  0  0  0  0  0
  -36.5015    3.1393  -45.9555 X   0  0  0  0  0  0  0  0  0  0  0  0
  1  2  1  0  0  0  0
  1  6  1  0  0  0  0
  1 13  1  0  0  0  0
  2  3  1  0  0  0  0
  3  4  1  0  0  0  0
  4  5  1  0  0  0  0
  4  7  1  0  0  0  0
  5  6  1  0  0  0  0
  7  8  1  0  0  0  0
  7 12  1  0  0  0  0
  8  9  1  0  0  0  0
  9 10  1  0  0  0  0
 10 11  1  0  0  0  0
 11 12  1  0  0  0  0
M  END
> <Index>
17646

> <PropertyFieldDistance>
nan

$$$$
13433592
BBcorina  12272117083D 1   1.00000     0.00000 
CORINA 4.3.0 0026  30.10.2019
 11 11  0  0  0  0  0  0  0  0999 V2000
  -36.0173    3.5927  -44.4913 N   0  0  0  0  0  0  0  0  0  0  0  0
  -36.3933    2.1751  -44.5752 C   0  0  0  0  0  0  0  0  0  0  0  0
  -36.1059    1.6538  -45.9847 C   0  0  0  0  0  0  0  0  0  0  0  0
  -36.5733    0.1930  -46.1055 C   0  0  0  0  0  0  0  0  0  0  0  0
  -37.3376   -0.0148  -47.3958 C   0  0  0  0  0  0  0  0  0  0  0  0
  -36.5506   -0.0519  -48.6664 C   0  0  0  0  0  0  0  0  0  0  0  0
  -36.1786    1.3172  -49.1692 C   0  0  0  0  0  0  0  0  0  0  0  0
  -35.0908    1.8620  -48.6658 C   0  0  0  0  0  0  0  0  0  0  0  0
  -34.3183    1.0810  -47.6327 C   0  0  0  0  0  0  0  0  0  0  0  0
  -34.5807    1.6857  -46.2551 C   0  0  0  0  0  0  0  0  0  0  0  0
  -36.3231    4.2164  -42.9287 X   0  0  0  0  0  0  0  0  0  0  0  0
  1  2  1  0  0  0  0
  1 11  1  0  0  0  0
  2  3  1  0  0  0  0
  3  4  1  0  0  0  0
  3 10  1  0  0  0  0
  4  5  1  0  0  0  0
  5  6  1  0  0  0  0
  6  7  1  0  0  0  0
  7  8  2  0  0  0  0
  8  9  1  0  0  0  0
  9 10  1  0  0  0  0
M  END
> <Index>
17659

> <PropertyFieldDistance>
nan

$$$$
13576932
BBcorina  12272117083D 1   1.00000     0.00000 
CORINA 4.3.0 0026  30.10.2019
 12 13  0  0  0  0  0  0  0  0999 V2000
  -36.3318    2.5145  -45.1428 C   0  0  0  0  0  0  0  0  0  0  0  0
  -36.0543    3.1809  -43.8635 N   0  0  0  0  0  0  0  0  0  0  0  0
  -37.1259    4.1615  -43.5285 C   0  0  0  0  0  0  0  0  0  0  0  0
  -36.3761    5.2752  -42.7931 C   0  0  0  0  0  0  0  0  0  0  0  0
  -37.0123    6.6489  -42.8056 C   0  0  0  0  0  0  0  0  0  0  0  0
  -36.0376    7.6048  -42.0971 C   0  0  0  0  0  0  0  0  0  0  0  0
  -34.6694    7.6167  -42.7714 C   0  0  0  0  0  0  0  0  0  0  0  0
  -34.0863    6.1987  -42.8969 C   0  0  0  0  0  0  0  0  0  0  0  0
  -35.0911    5.3722  -43.6723 C   0  0  0  0  0  0  0  0  0  0  0  0
  -34.7570    3.9051  -43.9105 C   0  0  0  0  0  0  0  0  0  0  0  0
  -33.7511    8.4442  -41.9778 N   0  0  0  0  0  0  0  0  0  0  0  0
  -33.8391   10.0847  -42.4521 X   0  0  0  0  0  0  0  0  0  0  0  0
  1  2  1  0  0  0  0
  2  3  1  0  0  0  0
  2 10  1  0  0  0  0
  3  4  1  0  0  0  0
  4  5  1  0  0  0  0
  4  9  1  0  0  0  0
  5  6  1  0  0  0  0
  6  7  1  0  0  0  0
  7  8  1  0  0  0  0
  7 11  1  0  0  0  0
  8  9  1  0  0  0  0
  9 10  1  0  0  0  0
 11 12  1  0  0  0  0
M  END
> <Index>
17660

> <PropertyFieldDistance>
nan

$$$$
13436384
BBcorina  12272117083D 1   1.00000     0.00000 
CORINA 4.3.0 0026  30.10.2019
 13 13  0  0  0  0  0  0  0  0999 V2000
  -34.3919    8.8979  -39.9544 F   0  0  0  0  0  0  0  0  0  0  0  0
  -35.6254    8.2480  -39.8379 C   0  0  0  0  0  0  0  0  0  0  0  0
  -36.6283    9.1917  -39.5916 F   0  0  0  0  0  0  0  0  0  0  0  0
  -35.5734    7.3354  -38.7788 F   0  0  0  0  0  0  0  0  0  0  0  0
  -35.9137    7.5523  -41.0524 O   0  0  0  0  0  0  0  0  0  0  0  0
  -34.9453    6.5600  -41.3980 C   0  0  0  0  0  0  0  0  0  0  0  0
  -35.3535    5.8833  -42.7079 C   0  0  0  0  0  0  0  0  0  0  0  0
  -36.6585    5.1099  -42.5008 C   0  0  0  0  0  0  0  0  0  0  0  0
  -37.0291    4.3869  -43.7977 C   0  0  0  0  0  0  0  0  0  0  0  0
  -35.9480    3.4664  -44.1723 N   0  0  0  0  0  0  0  0  0  0  0  0
  -34.6958    4.1916  -44.4226 C   0  0  0  0  0  0  0  0  0  0  0  0
  -34.2559    4.9088  -43.1442 C   0  0  0  0  0  0  0  0  0  0  0  0
  -36.3899    2.5211  -45.5270 X   0  0  0  0  0  0  0  0  0  0  0  0
  1  2  1  0  0  0  0
  2  3  1  0  0  0  0
  2  4  1  0  0  0  0
  2  5  1  0  0  0  0
  5  6  1  0  0  0  0
  6  7  1  0  0  0  0
  7  8  1  0  0  0  0
  7 12  1  0  0  0  0
  8  9  1  0  0  0  0
  9 10  1  0  0  0  0
 10 11  1  0  0  0  0
 10 13  1  0  0  0  0
 11 12  1  0  0  0  0
M  END
> <Index>
17667

> <PropertyFieldDistance>
nan

$$$$
13755930
BBcorina  12272117083D 1   1.00000     0.00000 
CORINA 4.3.0 0026  30.10.2019
 12 12  0  0  0  0  0  0  0  0999 V2000
  -35.6111    1.6046  -45.6558 C   0  0  0  0  0  0  0  0  0  0  0  0
  -36.6561    2.6066  -45.1611 C   0  0  0  0  0  0  0  0  0  0  0  0
  -37.0148    3.5706  -46.2937 C   0  0  0  0  0  0  0  0  0  0  0  0
  -37.8641    1.8837  -44.7310 C   0  0  0  0  0  0  0  0  0  0  0  0
  -38.8276    1.3072  -44.3881 C   0  0  0  0  0  0  0  0  0  0  0  0
  -36.1096    3.3646  -44.0276 N   0  0  0  0  0  0  0  0  0  0  0  0
  -37.0880    4.3391  -43.5249 C   0  0  0  0  0  0  0  0  0  0  0  0
  -36.5118    5.0503  -42.2984 C   0  0  0  0  0  0  0  0  0  0  0  0
  -35.2532    5.7139  -42.6664 N   0  0  0  0  0  0  0  0  0  0  0  0
  -34.2748    4.7394  -43.1690 C   0  0  0  0  0  0  0  0  0  0  0  0
  -34.8511    4.0282  -44.3957 C   0  0  0  0  0  0  0  0  0  0  0  0
  -34.6171    6.5962  -41.3470 X   0  0  0  0  0  0  0  0  0  0  0  0
  1  2  1  0  0  0  0
  2  3  1  0  0  0  0
  2  4  1  0  0  0  0
  2  6  1  0  0  0  0
  4  5  3  0  0  0  0
  6  7  1  0  0  0  0
  6 11  1  0  0  0  0
  7  8  1  0  0  0  0
  8  9  1  0  0  0  0
  9 10  1  0  0  0  0
  9 12  1  0  0  0  0
 10 11  1  0  0  0  0
M  END
> <Index>
17674

> <PropertyFieldDistance>
nan

$$$$
13422272
BBcorina  12272117083D 1   1.00000     0.00000 
CORINA 4.3.0 0026  30.10.2019
 12 12  0  0  0  0  0  0  0  0999 V2000
  -36.9291    0.6454  -46.5077 C   0  0  0  0  0  0  0  0  0  0  0  0
  -36.9285    2.0501  -45.9011 C   0  0  0  0  0  0  0  0  0  0  0  0
  -38.1741    2.3067  -45.3181 F   0  0  0  0  0  0  0  0  0  0  0  0
  -36.6810    2.9918  -46.9057 F   0  0  0  0  0  0  0  0  0  0  0  0
  -35.8366    2.1442  -44.8335 C   0  0  0  0  0  0  0  0  0  0  0  0
  -35.7436    3.5278  -44.3489 N   0  0  0  0  0  0  0  0  0  0  0  0
  -36.8430    3.8369  -43.4240 C   0  0  0  0  0  0  0  0  0  0  0  0
  -36.7560    5.3063  -43.0052 C   0  0  0  0  0  0  0  0  0  0  0  0
  -35.4533    5.5563  -42.3725 N   0  0  0  0  0  0  0  0  0  0  0  0
  -34.3538    5.2472  -43.2973 C   0  0  0  0  0  0  0  0  0  0  0  0
  -34.4410    3.7778  -43.7162 C   0  0  0  0  0  0  0  0  0  0  0  0
  -35.3450    7.1670  -41.8083 X   0  0  0  0  0  0  0  0  0  0  0  0
  1  2  1  0  0  0  0
  2  3  1  0  0  0  0
  2  4  1  0  0  0  0
  2  5  1  0  0  0  0
  5  6  1  0  0  0  0
  6  7  1  0  0  0  0
  6 11  1  0  0  0  0
  7  8  1  0  0  0  0
  8  9  1  0  0  0  0
  9 10  1  0  0  0  0
  9 12  1  0  0  0  0
 10 11  1  0  0  0  0
M  END
> <Index>
17691

> <PropertyFieldDistance>
nan

$$$$
12631536
BBcorina  12272117083D 1   1.00000     0.00000 
CORINA 4.3.0 0026  30.10.2019
 10 11  0  0  0  0  0  0  0  0999 V2000
  -36.0093    3.9314  -44.5804 N   0  0  0  0  0  0  0  0  0  0  0  0
  -36.9813    4.0325  -43.4887 C   0  0  0  0  0  0  0  0  0  0  0  0
  -36.6764    5.2427  -42.5939 C   0  0  0  0  0  0  0  0  0  0  0  0
  -35.2554    5.0885  -42.0697 C   0  0  0  0  0  0  0  0  0  0  0  0
  -34.8153    6.2232  -41.1394 C   0  0  0  0  0  0  0  0  0  0  0  0
  -32.9964    6.3063  -41.3762 S   0  0  0  0  0  0  0  0  0  0  0  0
  -32.8707    5.0291  -42.6945 C   0  0  0  0  0  0  0  0  0  0  0  0
  -34.2980    5.0490  -43.2768 C   0  0  0  0  0  0  0  0  0  0  0  0
  -34.6222    3.8080  -44.0979 C   0  0  0  0  0  0  0  0  0  0  0  0
  -36.4067    2.6477  -45.6379 X   0  0  0  0  0  0  0  0  0  0  0  0
  1  2  1  0  0  0  0
  1  9  1  0  0  0  0
  1 10  1  0  0  0  0
  2  3  1  0  0  0  0
  3  4  1  0  0  0  0
  4  5  1  0  0  0  0
  4  8  1  0  0  0  0
  5  6  1  0  0  0  0
  6  7  1  0  0  0  0
  7  8  1  0  0  0  0
  8  9  1  0  0  0  0
M  END
> <Index>
17692

> <PropertyFieldDistance>
nan

$$$$
12633040
BBcorina  12272117083D 1   1.00000     0.00000 
CORINA 4.3.0 0026  30.10.2019
 11 11  0  0  0  0  0  0  0  0999 V2000
  -33.6415    7.3301  -41.6031 C   0  0  0  0  0  0  0  0  0  0  0  0
  -34.9460    6.5579  -41.3957 C   0  0  0  0  0  0  0  0  0  0  0  0
  -36.0470    7.5254  -40.9567 C   0  0  0  0  0  0  0  0  0  0  0  0
  -34.7557    5.5636  -40.3872 O   0  0  0  0  0  0  0  0  0  0  0  0
  -35.3532    5.8831  -42.7070 C   0  0  0  0  0  0  0  0  0  0  0  0
  -36.6587    5.1099  -42.5007 C   0  0  0  0  0  0  0  0  0  0  0  0
  -37.0290    4.3869  -43.7977 C   0  0  0  0  0  0  0  0  0  0  0  0
  -35.9480    3.4664  -44.1723 N   0  0  0  0  0  0  0  0  0  0  0  0
  -34.6958    4.1917  -44.4226 C   0  0  0  0  0  0  0  0  0  0  0  0
  -34.2558    4.9088  -43.1443 C   0  0  0  0  0  0  0  0  0  0  0  0
  -36.3899    2.5211  -45.5270 X   0  0  0  0  0  0  0  0  0  0  0  0
  1  2  1  0  0  0  0
  2  3  1  0  0  0  0
  2  4  1  0  0  0  0
  2  5  1  0  0  0  0
  5  6  1  0  0  0  0
  5 10  1  0  0  0  0
  6  7  1  0  0  0  0
  7  8  1  0  0  0  0
  8  9  1  0  0  0  0
  8 11  1  0  0  0  0
  9 10  1  0  0  0  0
M  END
> <Index>
17697

> <PropertyFieldDistance>
nan

$$$$
12642980
BBcorina  12272117083D 1   1.00000     0.00000 
CORINA 4.3.0 0026  30.10.2019
 12 13  0  0  0  0  0  0  0  0999 V2000
  -37.9204    9.5387  -42.4524 O   0  0  0  0  0  0  0  0  0  0  0  0
  -37.3183    8.2564  -42.2646 C   0  0  0  0  0  0  0  0  0  0  0  0
  -36.7002    7.7853  -43.5825 C   0  0  0  0  0  0  0  0  0  0  0  0
  -36.0555    6.4124  -43.3815 C   0  0  0  0  0  0  0  0  0  0  0  0
  -37.1548    5.3789  -43.0495 C   0  0  0  0  0  0  0  0  0  0  0  0
  -36.5039    3.9874  -42.9933 C   0  0  0  0  0  0  0  0  0  0  0  0
  -35.2215    4.0842  -42.1351 C   0  0  0  0  0  0  0  0  0  0  0  0
  -34.1062    4.4612  -43.1323 C   0  0  0  0  0  0  0  0  0  0  0  0
  -34.8160    4.5580  -44.5024 C   0  0  0  0  0  0  0  0  0  0  0  0
  -35.3303    5.9974  -44.6648 C   0  0  0  0  0  0  0  0  0  0  0  0
  -36.0064    3.6780  -44.3602 N   0  0  0  0  0  0  0  0  0  0  0  0
  -35.5700    2.0302  -44.4951 X   0  0  0  0  0  0  0  0  0  0  0  0
  1  2  1  0  0  0  0
  2  3  1  0  0  0  0
  3  4  1  0  0  0  0
  4  5  1  0  0  0  0
  4 10  1  0  0  0  0
  5  6  1  0  0  0  0
  6  7  1  0  0  0  0
  6 11  1  0  0  0  0
  7  8  1  0  0  0  0
  8  9  1  0  0  0  0
  9 10  1  0  0  0  0
  9 11  1  0  0  0  0
 11 12  1  0  0  0  0
M  END
> <Index>
17698

> <PropertyFieldDistance>
nan

$$$$
13439932
BBcorina  12272117083D 1   1.00000     0.00000 
CORINA 4.3.0 0026  30.10.2019
 14 15  0  0  0  0  0  0  0  0999 V2000
  -33.9531    5.8260  -42.4740 N   0  0  0  0  0  0  0  0  0  0  0  0
  -34.9926    5.3607  -43.4020 C   0  0  0  0  0  0  0  0  0  0  0  0
  -36.3698    5.2687  -42.6935 C   0  0  0  0  0  0  0  0  0  0  0  0
  -37.1080    4.1883  -43.5118 C   0  0  0  0  0  0  0  0  0  0  0  0
  -36.0845    3.3777  -44.1879 N   0  0  0  0  0  0  0  0  0  0  0  0
  -34.7532    3.8855  -43.8095 C   0  0  0  0  0  0  0  0  0  0  0  0
  -36.3296    2.3170  -45.0357 C   0  0  0  0  0  0  0  0  0  0  0  0
  -37.6308    1.9334  -45.3149 C   0  0  0  0  0  0  0  0  0  0  0  0
  -37.8363    0.8511  -46.1815 C   0  0  0  0  0  0  0  0  0  0  0  0
  -38.9664    0.4796  -46.4555 O   0  0  0  0  0  0  0  0  0  0  0  0
  -36.7611    0.2280  -46.7076 N   0  0  0  0  0  0  0  0  0  0  0  0
  -35.5163    0.6445  -46.4012 C   0  0  0  0  0  0  0  0  0  0  0  0
  -35.3084    1.6531  -45.6000 N   0  0  0  0  0  0  0  0  0  0  0  0
  -33.7440    4.7221  -41.1848 X   0  0  0  0  0  0  0  0  0  0  0  0
  1  2  1  0  0  0  0
  1 14  1  0  0  0  0
  2  3  1  0  0  0  0
  2  6  1  0  0  0  0
  3  4  1  0  0  0  0
  4  5  1  0  0  0  0
  5  6  1  0  0  0  0
  5  7  1  0  0  0  0
  7  8  2  0  0  0  0
  7 13  1  0  0  0  0
  8  9  1  0  0  0  0
  9 10  2  0  0  0  0
  9 11  1  0  0  0  0
 11 12  1  0  0  0  0
 12 13  2  0  0  0  0
M  END
> <Index>
17712

> <PropertyFieldDistance>
nan

$$$$
13221402
BBcorina  12272117083D 1   1.00000     0.00000 
CORINA 4.3.0 0026  30.10.2019
 11 12  0  0  0  0  0  0  0  0999 V2000
  -34.8702    2.4556  -41.0912 N   0  0  0  0  0  0  0  0  0  0  0  0
  -35.4621    3.1067  -42.2675 C   0  0  0  0  0  0  0  0  0  0  0  0
  -35.3267    4.6193  -42.1240 C   0  0  0  0  0  0  0  0  0  0  0  0
  -36.2037    5.3282  -43.1602 C   0  0  0  0  0  0  0  0  0  0  0  0
  -35.5750    4.9315  -44.8208 S   0  0  0  0  0  0  0  0  0  0  0  0
  -35.4856    3.1198  -44.7647 C   0  0  0  0  0  0  0  0  0  0  0  0
  -35.0015    2.4908  -46.0751 C   0  0  0  0  0  0  0  0  0  0  0  0
  -36.0641    1.4012  -45.8478 C   0  0  0  0  0  0  0  0  0  0  0  0
  -36.8345    2.4344  -45.0071 C   0  0  0  0  0  0  0  0  0  0  0  0
  -34.7491    2.6150  -43.5260 C   0  0  0  0  0  0  0  0  0  0  0  0
  -33.2050    2.8218  -40.9610 X   0  0  0  0  0  0  0  0  0  0  0  0
  1  2  1  0  0  0  0
  1 11  1  0  0  0  0
  2  3  1  0  0  0  0
  2 10  1  0  0  0  0
  3  4  1  0  0  0  0
  4  5  1  0  0  0  0
  5  6  1  0  0  0  0
  6  7  1  0  0  0  0
  6  9  1  0  0  0  0
  6 10  1  0  0  0  0
  7  8  1  0  0  0  0
  8  9  1  0  0  0  0
M  END
> <Index>
17730

> <PropertyFieldDistance>
nan

$$$$
13225648
BBcorina  12272117083D 1   1.00000     0.00000 
CORINA 4.3.0 0026  30.10.2019
 13 13  0  0  0  0  0  0  0  0999 V2000
  -34.3359    7.6659  -43.9835 O   0  0  0  0  0  0  0  0  0  0  0  0
  -35.5546    6.9450  -43.7910 C   0  0  0  0  0  0  0  0  0  0  0  0
  -35.3534    5.8832  -42.7080 C   0  0  0  0  0  0  0  0  0  0  0  0
  -36.6587    5.1099  -42.5007 C   0  0  0  0  0  0  0  0  0  0  0  0
  -37.0290    4.3869  -43.7977 C   0  0  0  0  0  0  0  0  0  0  0  0
  -35.9479    3.4664  -44.1723 N   0  0  0  0  0  0  0  0  0  0  0  0
  -34.6958    4.1916  -44.4226 C   0  0  0  0  0  0  0  0  0  0  0  0
  -34.2559    4.9088  -43.1443 C   0  0  0  0  0  0  0  0  0  0  0  0
  -34.9458    6.5589  -41.3972 C   0  0  0  0  0  0  0  0  0  0  0  0
  -34.7590    5.5858  -40.4094 F   0  0  0  0  0  0  0  0  0  0  0  0
  -33.7532    7.2650  -41.5877 F   0  0  0  0  0  0  0  0  0  0  0  0
  -35.9525    7.4435  -40.9957 F   0  0  0  0  0  0  0  0  0  0  0  0
  -36.3899    2.5210  -45.5270 X   0  0  0  0  0  0  0  0  0  0  0  0
  1  2  1  0  0  0  0
  2  3  1  0  0  0  0
  3  4  1  0  0  0  0
  3  8  1  0  0  0  0
  3  9  1  0  0  0  0
  4  5  1  0  0  0  0
  5  6  1  0  0  0  0
  6  7  1  0  0  0  0
  6 13  1  0  0  0  0
  7  8  1  0  0  0  0
  9 10  1  0  0  0  0
  9 11  1  0  0  0  0
  9 12  1  0  0  0  0
M  END
> <Index>
17735

> <PropertyFieldDistance>
nan

$$$$
13184292
BBcorina  12272117083D 1   1.00000     0.00000 
CORINA 4.3.0 0026  30.10.2019
 10 10  0  0  0  0  0  0  0  0999 V2000
  -38.4964    2.4403  -44.4495 N   0  0  0  0  0  0  0  0  0  0  0  0
  -38.1145    3.2611  -43.2926 C   0  0  0  0  0  0  0  0  0  0  0  0
  -37.0858    4.3073  -43.7269 C   0  0  0  0  0  0  0  0  0  0  0  0
  -36.6105    5.0832  -42.4979 C   0  0  0  0  0  0  0  0  0  0  0  0
  -35.4242    5.9661  -42.9033 C   0  0  0  0  0  0  0  0  0  0  0  0
  -34.2412    5.0582  -43.2491 C   0  0  0  0  0  0  0  0  0  0  0  0
  -34.6862    3.9752  -44.1895 C   0  0  0  0  0  0  0  0  0  0  0  0
  -33.8386    3.3740  -44.8148 O   0  0  0  0  0  0  0  0  0  0  0  0
  -35.9635    3.6397  -44.3742 N   0  0  0  0  0  0  0  0  0  0  0  0
  -39.6473    1.2556  -44.0070 X   0  0  0  0  0  0  0  0  0  0  0  0
  1  2  1  0  0  0  0
  1 10  1  0  0  0  0
  2  3  1  0  0  0  0
  3  4  1  0  0  0  0
  3  9  1  0  0  0  0
  4  5  1  0  0  0  0
  5  6  1  0  0  0  0
  6  7  1  0  0  0  0
  7  8  2  0  0  0  0
  7  9  1  0  0  0  0
M  END
> <Index>
17737

> <PropertyFieldDistance>
nan

$$$$
7866776
BBcorina  12272117083D 1   1.00000     0.00000 
CORINA 4.3.0 0026  30.10.2019
 10 10  0  0  0  0  0  0  0  0999 V2000
  -35.6022    8.2524  -39.8027 O   0  0  0  0  0  0  0  0  0  0  0  0
  -35.9828    7.6214  -41.0271 C   0  0  0  0  0  0  0  0  0  0  0  0
  -34.9460    6.5589  -41.3971 C   0  0  0  0  0  0  0  0  0  0  0  0
  -35.3535    5.8833  -42.7079 C   0  0  0  0  0  0  0  0  0  0  0  0
  -36.6585    5.1099  -42.5008 C   0  0  0  0  0  0  0  0  0  0  0  0
  -37.0291    4.3869  -43.7977 C   0  0  0  0  0  0  0  0  0  0  0  0
  -35.9480    3.4664  -44.1723 N   0  0  0  0  0  0  0  0  0  0  0  0
  -34.6958    4.1916  -44.4226 C   0  0  0  0  0  0  0  0  0  0  0  0
  -34.2559    4.9088  -43.1442 C   0  0  0  0  0  0  0  0  0  0  0  0
  -36.3899    2.5211  -45.5270 X   0  0  0  0  0  0  0  0  0  0  0  0
  1  2  1  0  0  0  0
  2  3  1  0  0  0  0
  3  4  1  0  0  0  0
  4  5  1  0  0  0  0
  4  9  1  0  0  0  0
  5  6  1  0  0  0  0
  6  7  1  0  0  0  0
  7  8  1  0  0  0  0
  7 10  1  0  0  0  0
  8  9  1  0  0  0  0
M  END
> <Index>
17764

> <PropertyFieldDistance>
nan

$$$$
12297868
BBcorina  12272117083D 1   1.00000     0.00000 
CORINA 4.3.0 0026  30.10.2019
 12 12  0  0  0  0  0  0  0  0999 V2000
  -35.2623    6.8042  -38.8641 N   0  0  0  0  0  0  0  0  0  0  0  0
  -35.7980    6.4825  -40.0582 C   0  0  0  0  0  0  0  0  0  0  0  0
  -36.9820    6.2344  -40.1447 O   0  0  0  0  0  0  0  0  0  0  0  0
  -34.9259    6.4312  -41.2862 C   0  0  0  0  0  0  0  0  0  0  0  0
  -35.1684    7.5589  -42.0779 F   0  0  0  0  0  0  0  0  0  0  0  0
  -35.2462    5.1675  -42.0868 C   0  0  0  0  0  0  0  0  0  0  0  0
  -36.6793    5.2476  -42.6203 C   0  0  0  0  0  0  0  0  0  0  0  0
  -36.9723    4.0086  -43.4694 C   0  0  0  0  0  0  0  0  0  0  0  0
  -36.0191    3.9414  -44.5845 N   0  0  0  0  0  0  0  0  0  0  0  0
  -34.6396    3.8164  -44.0971 C   0  0  0  0  0  0  0  0  0  0  0  0
  -34.2769    5.0496  -43.2664 C   0  0  0  0  0  0  0  0  0  0  0  0
  -36.4111    2.6624  -45.6495 X   0  0  0  0  0  0  0  0  0  0  0  0
  1  2  1  0  0  0  0
  2  3  2  0  0  0  0
  2  4  1  0  0  0  0
  4  5  1  0  0  0  0
  4  6  1  0  0  0  0
  6  7  1  0  0  0  0
  6 11  1  0  0  0  0
  7  8  1  0  0  0  0
  8  9  1  0  0  0  0
  9 10  1  0  0  0  0
  9 12  1  0  0  0  0
 10 11  1  0  0  0  0
M  END
> <Index>
17768

> <PropertyFieldDistance>
nan

$$$$
12906936
BBcorina  12272117083D 1   1.00000     0.00000 
CORINA 4.3.0 0026  30.10.2019
  6  6  0  0  0  0  0  0  0  0999 V2000
  -35.4342    3.9808  -45.3789 C   0  0  0  0  0  0  0  0  0  0  0  0
  -35.2802    3.7760  -43.8705 C   0  0  0  0  0  0  0  0  0  0  0  0
  -36.5593    3.6470  -43.0409 C   0  0  0  0  0  0  0  0  0  0  0  0
  -35.6863    2.4169  -43.2970 C   0  0  0  0  0  0  0  0  0  0  0  0
  -34.9024    1.8948  -42.1697 N   0  0  0  0  0  0  0  0  0  0  0  0
  -34.8792    0.1850  -42.1791 X   0  0  0  0  0  0  0  0  0  0  0  0
  1  2  1  0  0  0  0
  2  3  1  0  0  0  0
  2  4  1  0  0  0  0
  3  4  1  0  0  0  0
  4  5  1  0  0  0  0
  5  6  1  0  0  0  0
M  END
> <Index>
17771

> <PropertyFieldDistance>
nan

$$$$
12304606
BBcorina  12272117083D 1   1.00000     0.00000 
CORINA 4.3.0 0026  30.10.2019
 14 15  0  0  0  0  0  0  0  0999 V2000
  -36.3024    2.2687  -45.0516 C   0  0  0  0  0  0  0  0  0  0  0  0
  -36.0554    3.4068  -44.1628 N   0  0  0  0  0  0  0  0  0  0  0  0
  -37.0869    4.2195  -43.5081 C   0  0  0  0  0  0  0  0  0  0  0  0
  -37.9718    4.8923  -44.5593 C   0  0  0  0  0  0  0  0  0  0  0  0
  -38.6674    3.8641  -45.3446 N   0  0  0  0  0  0  0  0  0  0  0  0
  -36.3540    5.2630  -42.7027 C   0  0  0  0  0  0  0  0  0  0  0  0
  -36.7717    6.2909  -41.8899 C   0  0  0  0  0  0  0  0  0  0  0  0
  -35.8384    7.1042  -41.2684 C   0  0  0  0  0  0  0  0  0  0  0  0
  -34.4863    6.8859  -41.4628 C   0  0  0  0  0  0  0  0  0  0  0  0
  -34.0566    5.8575  -42.2762 C   0  0  0  0  0  0  0  0  0  0  0  0
  -34.9909    5.0337  -42.9058 C   0  0  0  0  0  0  0  0  0  0  0  0
  -34.8464    3.8792  -43.8133 C   0  0  0  0  0  0  0  0  0  0  0  0
  -33.7858    3.4212  -44.1912 O   0  0  0  0  0  0  0  0  0  0  0  0
  -39.7985    4.5710  -46.4147 X   0  0  0  0  0  0  0  0  0  0  0  0
  1  2  1  0  0  0  0
  2  3  1  0  0  0  0
  2 12  1  0  0  0  0
  3  4  1  0  0  0  0
  3  6  1  0  0  0  0
  4  5  1  0  0  0  0
  5 14  1  0  0  0  0
  6  7  2  0  0  0  0
  6 11  1  0  0  0  0
  7  8  1  0  0  0  0
  8  9  2  0  0  0  0
  9 10  1  0  0  0  0
 10 11  2  0  0  0  0
 11 12  1  0  0  0  0
 12 13  2  0  0  0  0
M  END
> <Index>
17778

> <PropertyFieldDistance>
nan

$$$$
13022918
BBcorina  12272117083D 1   1.00000     0.00000 
CORINA 4.3.0 0026  30.10.2019
 15 16  0  0  0  0  0  0  0  0999 V2000
  -34.6527    6.6056  -41.7403 N   0  0  0  0  0  0  0  0  0  0  0  0
  -35.2346    5.8725  -42.8725 C   0  0  0  0  0  0  0  0  0  0  0  0
  -36.5244    5.1793  -42.4246 C   0  0  0  0  0  0  0  0  0  0  0  0
  -37.0941    4.3693  -43.5915 C   0  0  0  0  0  0  0  0  0  0  0  0
  -36.1068    3.3728  -44.0255 N   0  0  0  0  0  0  0  0  0  0  0  0
  -36.6704    2.4856  -45.0517 C   0  0  0  0  0  0  0  0  0  0  0  0
  -35.5713    1.6434  -45.6464 C   0  0  0  0  0  0  0  0  0  0  0  0
  -35.3782    0.4618  -45.1544 C   0  0  0  0  0  0  0  0  0  0  0  0
  -34.3179   -0.4857  -45.6340 C   0  0  0  0  0  0  0  0  0  0  0  0
  -33.8082   -0.0533  -47.0105 C   0  0  0  0  0  0  0  0  0  0  0  0
  -33.4680    1.4413  -46.9544 C   0  0  0  0  0  0  0  0  0  0  0  0
  -34.7683    2.2272  -46.7719 C   0  0  0  0  0  0  0  0  0  0  0  0
  -34.8772    4.0170  -44.5045 C   0  0  0  0  0  0  0  0  0  0  0  0
  -34.2413    4.8163  -43.3649 C   0  0  0  0  0  0  0  0  0  0  0  0
  -34.1848    5.5345  -40.4922 X   0  0  0  0  0  0  0  0  0  0  0  0
  1  2  1  0  0  0  0
  1 15  1  0  0  0  0
  2  3  1  0  0  0  0
  2 14  1  0  0  0  0
  3  4  1  0  0  0  0
  4  5  1  0  0  0  0
  5  6  1  0  0  0  0
  5 13  1  0  0  0  0
  6  7  1  0  0  0  0
  7  8  2  0  0  0  0
  7 12  1  0  0  0  0
  8  9  1  0  0  0  0
  9 10  1  0  0  0  0
 10 11  1  0  0  0  0
 11 12  1  0  0  0  0
 13 14  1  0  0  0  0
M  END
> <Index>
17797

> <PropertyFieldDistance>
nan

$$$$
9286182
BBcorina  12272117083D 1   1.00000     0.00000 
CORINA 4.3.0 0026  30.10.2019
  9  9  0  0  0  0  0  0  0  0999 V2000
  -36.2688    1.2820  -45.0705 C   0  0  0  0  0  0  0  0  0  0  0  0
  -36.3090    2.7168  -45.6001 C   0  0  0  0  0  0  0  0  0  0  0  0
  -35.8852    3.6393  -44.5438 N   0  0  0  0  0  0  0  0  0  0  0  0
  -36.7786    4.2800  -43.5710 C   0  0  0  0  0  0  0  0  0  0  0  0
  -35.9107    4.7531  -42.4665 N   0  0  0  0  0  0  0  0  0  0  0  0
  -34.6073    4.9766  -43.1362 C   0  0  0  0  0  0  0  0  0  0  0  0
  -34.6154    4.0343  -44.3201 C   0  0  0  0  0  0  0  0  0  0  0  0
  -33.6436    3.6918  -44.9598 O   0  0  0  0  0  0  0  0  0  0  0  0
  -36.5134    6.2071  -41.7981 X   0  0  0  0  0  0  0  0  0  0  0  0
  1  2  1  0  0  0  0
  2  3  1  0  0  0  0
  3  4  1  0  0  0  0
  3  7  1  0  0  0  0
  4  5  1  0  0  0  0
  5  6  1  0  0  0  0
  5  9  1  0  0  0  0
  6  7  1  0  0  0  0
  7  8  2  0  0  0  0
M  END
> <Index>
17806

> <PropertyFieldDistance>
nan

$$$$
13028686
BBcorina  12272117083D 1   1.00000     0.00000 
CORINA 4.3.0 0026  30.10.2019
  9 10  0  0  0  0  0  0  0  0999 V2000
  -35.9880    3.9284  -44.6367 N   0  0  0  0  0  0  0  0  0  0  0  0
  -37.0725    4.1510  -43.6457 C   0  0  0  0  0  0  0  0  0  0  0  0
  -36.4295    5.0382  -42.5572 C   0  0  0  0  0  0  0  0  0  0  0  0
  -37.0032    4.6354  -41.1846 C   0  0  0  0  0  0  0  0  0  0  0  0
  -35.5325    4.7367  -40.0851 S   0  0  0  0  0  0  0  0  0  0  0  0
  -34.3425    4.1674  -41.3666 C   0  0  0  0  0  0  0  0  0  0  0  0
  -34.9212    4.7728  -42.6603 C   0  0  0  0  0  0  0  0  0  0  0  0
  -34.7677    3.7456  -43.8034 C   0  0  0  0  0  0  0  0  0  0  0  0
  -36.3002    2.5405  -45.5856 X   0  0  0  0  0  0  0  0  0  0  0  0
  1  2  1  0  0  0  0
  1  8  1  0  0  0  0
  1  9  1  0  0  0  0
  2  3  1  0  0  0  0
  3  4  1  0  0  0  0
  3  7  1  0  0  0  0
  4  5  1  0  0  0  0
  5  6  1  0  0  0  0
  6  7  1  0  0  0  0
  7  8  1  0  0  0  0
M  END
> <Index>
17828

> <PropertyFieldDistance>
nan

$$$$
13035254
BBcorina  12272117083D 1   1.00000     0.00000 
CORINA 4.3.0 0026  30.10.2019
  8  9  0  0  0  0  0  0  0  0999 V2000
  -35.0967    7.1438  -43.7572 Br  0  0  0  0  0  0  0  0  0  0  0  0
  -35.3890    5.8961  -42.2661 C   0  0  0  0  0  0  0  0  0  0  0  0
  -36.4718    4.8295  -42.4412 C   0  0  0  0  0  0  0  0  0  0  0  0
  -36.9946    4.5502  -43.8666 C   0  0  0  0  0  0  0  0  0  0  0  0
  -36.0637    3.5298  -44.4137 N   0  0  0  0  0  0  0  0  0  0  0  0
  -34.7276    3.9536  -43.9215 C   0  0  0  0  0  0  0  0  0  0  0  0
  -34.9804    4.4369  -42.4773 C   0  0  0  0  0  0  0  0  0  0  0  0
  -36.1098    3.5119  -46.1229 X   0  0  0  0  0  0  0  0  0  0  0  0
  1  2  1  0  0  0  0
  2  3  1  0  0  0  0
  2  7  1  0  0  0  0
  3  4  1  0  0  0  0
  3  7  1  0  0  0  0
  4  5  1  0  0  0  0
  5  6  1  0  0  0  0
  5  8  1  0  0  0  0
  6  7  1  0  0  0  0
M  END
> <Index>
17836

> <PropertyFieldDistance>
nan

$$$$
12496614
BBcorina  12272117083D 1   1.00000     0.00000 
CORINA 4.3.0 0026  30.10.2019
 13 13  0  0  0  0  0  0  0  0999 V2000
  -35.1425   -1.4829  -49.5372 O   0  0  0  0  0  0  0  0  0  0  0  0
  -35.8269   -1.1886  -48.3177 C   0  0  0  0  0  0  0  0  0  0  0  0
  -35.4382    0.2120  -47.8400 C   0  0  0  0  0  0  0  0  0  0  0  0
  -36.1711    0.5271  -46.5343 C   0  0  0  0  0  0  0  0  0  0  0  0
  -35.7823    1.9276  -46.0565 C   0  0  0  0  0  0  0  0  0  0  0  0
  -36.5152    2.2426  -44.7509 C   0  0  0  0  0  0  0  0  0  0  0  0
  -36.1420    3.5873  -44.2922 N   0  0  0  0  0  0  0  0  0  0  0  0
  -36.9971    4.0198  -43.1779 C   0  0  0  0  0  0  0  0  0  0  0  0
  -36.6299    5.4522  -42.7828 C   0  0  0  0  0  0  0  0  0  0  0  0
  -35.2107    5.5048  -42.4050 N   0  0  0  0  0  0  0  0  0  0  0  0
  -34.3557    5.0723  -43.5191 C   0  0  0  0  0  0  0  0  0  0  0  0
  -34.7229    3.6399  -43.9143 C   0  0  0  0  0  0  0  0  0  0  0  0
  -34.7764    7.0700  -41.8709 X   0  0  0  0  0  0  0  0  0  0  0  0
  1  2  1  0  0  0  0
  2  3  1  0  0  0  0
  3  4  1  0  0  0  0
  4  5  1  0  0  0  0
  5  6  1  0  0  0  0
  6  7  1  0  0  0  0
  7  8  1  0  0  0  0
  7 12  1  0  0  0  0
  8  9  1  0  0  0  0
  9 10  1  0  0  0  0
 10 11  1  0  0  0  0
 10 13  1  0  0  0  0
 11 12  1  0  0  0  0
M  END
> <Index>
17848

> <PropertyFieldDistance>
nan

$$$$
12306810
BBcorina  12272117083D 1   1.00000     0.00000 
CORINA 4.3.0 0026  30.10.2019
 11 12  0  0  0  0  0  0  0  0999 V2000
  -35.9693    4.2026  -44.4970 N   0  0  0  0  0  0  0  0  0  0  0  0
  -36.8797    3.9465  -43.3916 C   0  0  0  0  0  0  0  0  0  0  0  0
  -37.2193    5.1065  -42.5230 C   0  0  0  0  0  0  0  0  0  0  0  0
  -35.8775    5.5921  -41.8834 C   0  0  0  0  0  0  0  0  0  0  0  0
  -34.9406    4.4490  -41.4943 C   0  0  0  0  0  0  0  0  0  0  0  0
  -33.5444    4.6195  -42.1358 C   0  0  0  0  0  0  0  0  0  0  0  0
  -33.8257    5.0349  -43.6437 C   0  0  0  0  0  0  0  0  0  0  0  0
  -34.6933    3.7730  -43.9824 C   0  0  0  0  0  0  0  0  0  0  0  0
  -34.9908    6.4187  -43.2534 S   0  0  0  0  0  0  0  0  0  0  0  0
  -35.8799    6.6114  -44.3450 O   0  0  0  0  0  0  0  0  0  0  0  0
  -36.4106    3.2949  -45.8773 X   0  0  0  0  0  0  0  0  0  0  0  0
  1  2  1  0  0  0  0
  1  8  1  0  0  0  0
  1 11  1  0  0  0  0
  2  3  1  0  0  0  0
  3  4  1  0  0  0  0
  4  5  1  0  0  0  0
  4  9  1  0  0  0  0
  5  6  1  0  0  0  0
  6  7  1  0  0  0  0
  7  8  1  0  0  0  0
  7  9  1  0  0  0  0
  9 10  2  0  0  0  0
M  END
> <Index>
17852

> <PropertyFieldDistance>
nan

$$$$
12890686
BBcorina  12272117083D 1   1.00000     0.00000 
CORINA 4.3.0 0026  30.10.2019
 14 15  0  0  0  0  0  0  0  0999 V2000
  -36.3354    2.2504  -44.8008 C   0  0  0  0  0  0  0  0  0  0  0  0
  -35.9671    3.5313  -44.1925 N   0  0  0  0  0  0  0  0  0  0  0  0
  -37.0204    4.4038  -43.6856 C   0  0  0  0  0  0  0  0  0  0  0  0
  -36.6411    5.0743  -42.3646 C   0  0  0  0  0  0  0  0  0  0  0  0
  -35.2884    5.6158  -42.4683 N   0  0  0  0  0  0  0  0  0  0  0  0
  -34.7007    6.6562  -41.8791 C   0  0  0  0  0  0  0  0  0  0  0  0
  -35.3407    7.6050  -40.8986 C   0  0  0  0  0  0  0  0  0  0  0  0
  -35.9373    8.7327  -41.6268 N   0  0  0  0  0  0  0  0  0  0  0  0
  -33.4564    6.6994  -42.3066 N   0  0  0  0  0  0  0  0  0  0  0  0
  -33.2426    5.7397  -43.1449 N   0  0  0  0  0  0  0  0  0  0  0  0
  -34.3345    5.0535  -43.2945 C   0  0  0  0  0  0  0  0  0  0  0  0
  -34.6581    3.8714  -44.1167 C   0  0  0  0  0  0  0  0  0  0  0  0
  -33.7965    3.2374  -44.6948 O   0  0  0  0  0  0  0  0  0  0  0  0
  -36.6761    9.8359  -40.5491 X   0  0  0  0  0  0  0  0  0  0  0  0
  1  2  1  0  0  0  0
  2  3  1  0  0  0  0
  2 12  1  0  0  0  0
  3  4  1  0  0  0  0
  4  5  1  0  0  0  0
  5  6  1  0  0  0  0
  5 11  1  0  0  0  0
  6  7  1  0  0  0  0
  6  9  2  0  0  0  0
  7  8  1  0  0  0  0
  8 14  1  0  0  0  0
  9 10  1  0  0  0  0
 10 11  2  0  0  0  0
 11 12  1  0  0  0  0
 12 13  2  0  0  0  0
M  END
> <Index>
17878

> <PropertyFieldDistance>
nan

$$$$
10549530
BBcorina  12272117083D 1   1.00000     0.00000 
CORINA 4.3.0 0026  30.10.2019
 15 16  0  0  0  0  0  0  0  0999 V2000
  -33.6285    0.6734  -45.9744 C   0  0  0  0  0  0  0  0  0  0  0  0
  -34.4845    1.4396  -45.1247 O   0  0  0  0  0  0  0  0  0  0  0  0
  -35.8004    1.6330  -45.6473 C   0  0  0  0  0  0  0  0  0  0  0  0
  -36.6247    2.4616  -44.6600 C   0  0  0  0  0  0  0  0  0  0  0  0
  -36.0483    3.8084  -44.5505 N   0  0  0  0  0  0  0  0  0  0  0  0
  -36.9512    4.7144  -43.7917 C   0  0  0  0  0  0  0  0  0  0  0  0
  -36.7314    4.3185  -42.3133 C   0  0  0  0  0  0  0  0  0  0  0  0
  -35.3146    3.7090  -42.2737 C   0  0  0  0  0  0  0  0  0  0  0  0
  -34.8070    3.7919  -43.7317 C   0  0  0  0  0  0  0  0  0  0  0  0
  -34.1225    5.1560  -43.9145 C   0  0  0  0  0  0  0  0  0  0  0  0
  -35.0326    6.2476  -43.3441 C   0  0  0  0  0  0  0  0  0  0  0  0
  -36.4226    6.1455  -43.9786 C   0  0  0  0  0  0  0  0  0  0  0  0
  -35.1460    6.0783  -41.8893 N   0  0  0  0  0  0  0  0  0  0  0  0
  -35.9900    7.1272  -41.3015 C   0  0  0  0  0  0  0  0  0  0  0  0
  -33.6026    6.0497  -41.1535 X   0  0  0  0  0  0  0  0  0  0  0  0
  1  2  1  0  0  0  0
  2  3  1  0  0  0  0
  3  4  1  0  0  0  0
  4  5  1  0  0  0  0
  5  6  1  0  0  0  0
  5  9  1  0  0  0  0
  6  7  1  0  0  0  0
  6 12  1  0  0  0  0
  7  8  1  0  0  0  0
  8  9  1  0  0  0  0
  9 10  1  0  0  0  0
 10 11  1  0  0  0  0
 11 12  1  0  0  0  0
 11 13  1  0  0  0  0
 13 14  1  0  0  0  0
 13 15  1  0  0  0  0
M  END
> <Index>
17902

> <PropertyFieldDistance>
nan

$$$$
9156632
BBcorina  12272117083D 1   1.00000     0.00000 
CORINA 4.3.0 0026  30.10.2019
 15 16  0  0  0  0  0  0  0  0999 V2000
  -34.3517    2.8135  -46.2986 F   0  0  0  0  0  0  0  0  0  0  0  0
  -35.4493    2.0907  -45.9860 C   0  0  0  0  0  0  0  0  0  0  0  0
  -35.7363    0.9198  -46.6668 C   0  0  0  0  0  0  0  0  0  0  0  0
  -36.8780    0.2115  -46.3147 C   0  0  0  0  0  0  0  0  0  0  0  0
  -37.6813    0.6858  -45.2980 C   0  0  0  0  0  0  0  0  0  0  0  0
  -37.3815    1.8031  -44.6622 N   0  0  0  0  0  0  0  0  0  0  0  0
  -36.3060    2.5101  -44.9702 C   0  0  0  0  0  0  0  0  0  0  0  0
  -36.0280    3.6820  -44.2735 N   0  0  0  0  0  0  0  0  0  0  0  0
  -37.0023    3.9291  -43.2977 C   0  0  0  0  0  0  0  0  0  0  0  0
  -36.8206    5.3228  -42.6559 C   0  0  0  0  0  0  0  0  0  0  0  0
  -35.6642    5.2699  -41.6904 C   0  0  0  0  0  0  0  0  0  0  0  0
  -34.3773    5.6611  -42.3095 N   0  0  0  0  0  0  0  0  0  0  0  0
  -34.1779    5.1127  -43.6669 C   0  0  0  0  0  0  0  0  0  0  0  0
  -34.6399    3.6811  -43.7689 C   0  0  0  0  0  0  0  0  0  0  0  0
  -34.1844    7.3602  -42.3007 X   0  0  0  0  0  0  0  0  0  0  0  0
  1  2  1  0  0  0  0
  2  3  2  0  0  0  0
  2  7  1  0  0  0  0
  3  4  1  0  0  0  0
  4  5  2  0  0  0  0
  5  6  1  0  0  0  0
  6  7  2  0  0  0  0
  7  8  1  0  0  0  0
  8  9  1  0  0  0  0
  8 14  1  0  0  0  0
  9 10  1  0  0  0  0
 10 11  1  0  0  0  0
 11 12  1  0  0  0  0
 12 13  1  0  0  0  0
 12 15  1  0  0  0  0
 13 14  1  0  0  0  0
M  END
> <Index>
17913

> <PropertyFieldDistance>
nan

$$$$
6957106
BBcorina  12272117083D 1   1.00000     0.00000 
CORINA 4.3.0 0026  30.10.2019
 14 15  0  0  0  0  0  0  0  0999 V2000
  -38.4230    2.9830  -45.7607 F   0  0  0  0  0  0  0  0  0  0  0  0
  -37.4969    2.0267  -45.5309 C   0  0  0  0  0  0  0  0  0  0  0  0
  -37.7109    0.7259  -45.9541 C   0  0  0  0  0  0  0  0  0  0  0  0
  -36.7336   -0.2255  -45.6913 C   0  0  0  0  0  0  0  0  0  0  0  0
  -35.5826    0.1521  -45.0306 C   0  0  0  0  0  0  0  0  0  0  0  0
  -35.4020    1.4010  -44.6430 N   0  0  0  0  0  0  0  0  0  0  0  0
  -36.3103    2.3364  -44.8693 C   0  0  0  0  0  0  0  0  0  0  0  0
  -36.0782    3.6406  -44.4434 N   0  0  0  0  0  0  0  0  0  0  0  0
  -37.0885    4.0602  -43.4386 C   0  0  0  0  0  0  0  0  0  0  0  0
  -36.4008    5.2476  -42.7190 C   0  0  0  0  0  0  0  0  0  0  0  0
  -34.9222    4.8014  -42.6515 C   0  0  0  0  0  0  0  0  0  0  0  0
  -34.7672    3.7523  -43.7680 C   0  0  0  0  0  0  0  0  0  0  0  0
  -34.0330    5.9443  -42.8986 N   0  0  0  0  0  0  0  0  0  0  0  0
  -34.4678    6.7590  -44.3378 X   0  0  0  0  0  0  0  0  0  0  0  0
  1  2  1  0  0  0  0
  2  3  2  0  0  0  0
  2  7  1  0  0  0  0
  3  4  1  0  0  0  0
  4  5  2  0  0  0  0
  5  6  1  0  0  0  0
  6  7  2  0  0  0  0
  7  8  1  0  0  0  0
  8  9  1  0  0  0  0
  8 12  1  0  0  0  0
  9 10  1  0  0  0  0
 10 11  1  0  0  0  0
 11 12  1  0  0  0  0
 11 13  1  0  0  0  0
 13 14  1  0  0  0  0
M  END
> <Index>
17914

> <PropertyFieldDistance>
nan

$$$$
10177112
BBcorina  12272117083D 1   1.00000     0.00000 
CORINA 4.3.0 0026  30.10.2019
  8  8  0  0  0  0  0  0  0  0999 V2000
  -36.4527    5.7017  -42.8945 F   0  0  0  0  0  0  0  0  0  0  0  0
  -35.7377    4.4993  -42.8892 C   0  0  0  0  0  0  0  0  0  0  0  0
  -36.2315    3.6675  -41.8786 F   0  0  0  0  0  0  0  0  0  0  0  0
  -35.8964    3.8056  -44.2437 C   0  0  0  0  0  0  0  0  0  0  0  0
  -36.7055    2.5076  -44.2821 C   0  0  0  0  0  0  0  0  0  0  0  0
  -35.1842    2.4656  -44.4389 C   0  0  0  0  0  0  0  0  0  0  0  0
  -34.4003    1.9435  -43.3115 N   0  0  0  0  0  0  0  0  0  0  0  0
  -32.8124    2.5780  -43.3233 X   0  0  0  0  0  0  0  0  0  0  0  0
  1  2  1  0  0  0  0
  2  3  1  0  0  0  0
  2  4  1  0  0  0  0
  4  5  1  0  0  0  0
  4  6  1  0  0  0  0
  5  6  1  0  0  0  0
  6  7  1  0  0  0  0
  7  8  1  0  0  0  0
M  END
> <Index>
17929

> <PropertyFieldDistance>
nan

$$$$
10211012
BBcorina  12272117083D 1   1.00000     0.00000 
CORINA 4.3.0 0026  30.10.2019
 12 12  0  0  0  0  0  0  0  0999 V2000
  -37.4453    1.6927  -44.2342 N   0  0  0  0  0  0  0  0  0  0  0  0
  -36.2421    2.2354  -44.5066 C   0  0  0  0  0  0  0  0  0  0  0  0
  -35.3581    1.5479  -44.9802 O   0  0  0  0  0  0  0  0  0  0  0  0
  -36.0188    3.5404  -44.2540 N   0  0  0  0  0  0  0  0  0  0  0  0
  -37.1073    4.4092  -43.7858 C   0  0  0  0  0  0  0  0  0  0  0  0
  -36.6609    5.1080  -42.4978 C   0  0  0  0  0  0  0  0  0  0  0  0
  -35.3388    5.8369  -42.7494 C   0  0  0  0  0  0  0  0  0  0  0  0
  -34.2633    4.8234  -43.1467 C   0  0  0  0  0  0  0  0  0  0  0  0
  -32.9341    5.5488  -43.3661 C   0  0  0  0  0  0  0  0  0  0  0  0
  -31.8764    4.5641  -43.6299 N   0  0  0  0  0  0  0  0  0  0  0  0
  -34.6824    4.1213  -44.4421 C   0  0  0  0  0  0  0  0  0  0  0  0
  -30.3707    5.3345  -43.8814 X   0  0  0  0  0  0  0  0  0  0  0  0
  1  2  1  0  0  0  0
  2  3  2  0  0  0  0
  2  4  1  0  0  0  0
  4  5  1  0  0  0  0
  4 11  1  0  0  0  0
  5  6  1  0  0  0  0
  6  7  1  0  0  0  0
  7  8  1  0  0  0  0
  8  9  1  0  0  0  0
  8 11  1  0  0  0  0
  9 10  1  0  0  0  0
 10 12  1  0  0  0  0
M  END
> <Index>
17933

> <PropertyFieldDistance>
nan

$$$$
10207870
BBcorina  12272117083D 1   1.00000     0.00000 
CORINA 4.3.0 0026  30.10.2019
 11 11  0  0  0  0  0  0  0  0999 V2000
  -35.4780    1.8559  -48.2709 O   0  0  0  0  0  0  0  0  0  0  0  0
  -36.2597    2.3396  -47.1768 C   0  0  0  0  0  0  0  0  0  0  0  0
  -35.8124    1.6503  -45.8863 C   0  0  0  0  0  0  0  0  0  0  0  0
  -36.5617    2.2568  -44.6981 C   0  0  0  0  0  0  0  0  0  0  0  0
  -36.1632    3.6610  -44.5330 N   0  0  0  0  0  0  0  0  0  0  0  0
  -37.1106    4.3803  -43.6618 C   0  0  0  0  0  0  0  0  0  0  0  0
  -36.2968    4.9726  -42.4921 C   0  0  0  0  0  0  0  0  0  0  0  0
  -34.8569    5.0383  -43.0660 C   0  0  0  0  0  0  0  0  0  0  0  0
  -34.8113    3.7623  -43.9431 C   0  0  0  0  0  0  0  0  0  0  0  0
  -36.1086    0.2139  -45.9704 N   0  0  0  0  0  0  0  0  0  0  0  0
  -37.7905   -0.0575  -46.1169 X   0  0  0  0  0  0  0  0  0  0  0  0
  1  2  1  0  0  0  0
  2  3  1  0  0  0  0
  3  4  1  0  0  0  0
  3 10  1  0  0  0  0
  4  5  1  0  0  0  0
  5  6  1  0  0  0  0
  5  9  1  0  0  0  0
  6  7  1  0  0  0  0
  7  8  1  0  0  0  0
  8  9  1  0  0  0  0
 10 11  1  0  0  0  0
M  END
> <Index>
17939

> <PropertyFieldDistance>
nan

$$$$
16976084
BBcorina  12272117083D 1   1.00000     0.00000 
CORINA 4.3.0 0026  30.10.2019
 11 11  0  0  0  0  0  0  0  0999 V2000
  -37.5650    5.3171  -41.4215 C   0  0  0  0  0  0  0  0  0  0  0  0
  -36.6294    5.2503  -42.6303 C   0  0  0  0  0  0  0  0  0  0  0  0
  -36.9726    4.0212  -43.4763 C   0  0  0  0  0  0  0  0  0  0  0  0
  -36.0218    3.9204  -44.5930 N   0  0  0  0  0  0  0  0  0  0  0  0
  -34.6411    3.8202  -44.0953 C   0  0  0  0  0  0  0  0  0  0  0  0
  -34.3224    5.0514  -43.2429 C   0  0  0  0  0  0  0  0  0  0  0  0
  -32.9158    4.9163  -42.6561 C   0  0  0  0  0  0  0  0  0  0  0  0
  -32.5508    6.1990  -41.9062 C   0  0  0  0  0  0  0  0  0  0  0  0
  -31.2370    6.0729  -41.3580 O   0  0  0  0  0  0  0  0  0  0  0  0
  -35.2753    5.1506  -42.1811 O   0  0  0  0  0  0  0  0  0  0  0  0
  -36.4049    2.5975  -45.6065 X   0  0  0  0  0  0  0  0  0  0  0  0
  1  2  1  0  0  0  0
  2  3  1  0  0  0  0
  2 10  1  0  0  0  0
  3  4  1  0  0  0  0
  4  5  1  0  0  0  0
  4 11  1  0  0  0  0
  5  6  1  0  0  0  0
  6  7  1  0  0  0  0
  6 10  1  0  0  0  0
  7  8  1  0  0  0  0
  8  9  1  0  0  0  0
M  END
> <Index>
17940

> <PropertyFieldDistance>
nan

$$$$
7109168
BBcorina  12272117083D 1   1.00000     0.00000 
CORINA 4.3.0 0026  30.10.2019
 11 12  0  0  0  0  0  0  0  0999 V2000
  -33.0759    3.1385  -44.3344 N   0  0  0  0  0  0  0  0  0  0  0  0
  -34.4914    2.7458  -44.3286 C   0  0  0  0  0  0  0  0  0  0  0  0
  -35.1496    3.1417  -45.6601 C   0  0  0  0  0  0  0  0  0  0  0  0
  -36.6383    2.8073  -45.6687 C   0  0  0  0  0  0  0  0  0  0  0  0
  -37.3651    3.4484  -44.4675 C   0  0  0  0  0  0  0  0  0  0  0  0
  -36.6840    2.9404  -43.2134 C   0  0  0  0  0  0  0  0  0  0  0  0
  -37.1817    3.4062  -41.9642 O   0  0  0  0  0  0  0  0  0  0  0  0
  -36.1234    3.1398  -41.0090 C   0  0  0  0  0  0  0  0  0  0  0  0
  -34.7869    3.1494  -41.7954 C   0  0  0  0  0  0  0  0  0  0  0  0
  -35.2278    3.4835  -43.2244 C   0  0  0  0  0  0  0  0  0  0  0  0
  -32.9108    4.8333  -44.4905 X   0  0  0  0  0  0  0  0  0  0  0  0
  1  2  1  0  0  0  0
  1 11  1  0  0  0  0
  2  3  1  0  0  0  0
  2 10  1  0  0  0  0
  3  4  1  0  0  0  0
  4  5  1  0  0  0  0
  5  6  1  0  0  0  0
  6  7  1  0  0  0  0
  6 10  1  0  0  0  0
  7  8  1  0  0  0  0
  8  9  1  0  0  0  0
  9 10  1  0  0  0  0
M  END
> <Index>
17949

> <PropertyFieldDistance>
nan

$$$$
7102344
BBcorina  12272117083D 1   1.00000     0.00000 
CORINA 4.3.0 0026  30.10.2019
 12 12  0  0  0  0  0  0  0  0999 V2000
  -34.2668    9.0628  -39.9225 C   0  0  0  0  0  0  0  0  0  0  0  0
  -35.5752    8.2970  -39.7163 C   0  0  0  0  0  0  0  0  0  0  0  0
  -36.6727    9.2703  -39.2813 C   0  0  0  0  0  0  0  0  0  0  0  0
  -35.9828    7.6214  -41.0271 C   0  0  0  0  0  0  0  0  0  0  0  0
  -34.9460    6.5589  -41.3971 C   0  0  0  0  0  0  0  0  0  0  0  0
  -35.3535    5.8833  -42.7079 C   0  0  0  0  0  0  0  0  0  0  0  0
  -36.6585    5.1099  -42.5008 C   0  0  0  0  0  0  0  0  0  0  0  0
  -37.0291    4.3869  -43.7977 C   0  0  0  0  0  0  0  0  0  0  0  0
  -35.9480    3.4664  -44.1723 N   0  0  0  0  0  0  0  0  0  0  0  0
  -34.6958    4.1916  -44.4226 C   0  0  0  0  0  0  0  0  0  0  0  0
  -34.2559    4.9088  -43.1442 C   0  0  0  0  0  0  0  0  0  0  0  0
  -36.3899    2.5211  -45.5270 X   0  0  0  0  0  0  0  0  0  0  0  0
  1  2  1  0  0  0  0
  2  3  1  0  0  0  0
  2  4  1  0  0  0  0
  4  5  1  0  0  0  0
  5  6  1  0  0  0  0
  6  7  1  0  0  0  0
  6 11  1  0  0  0  0
  7  8  1  0  0  0  0
  8  9  1  0  0  0  0
  9 10  1  0  0  0  0
  9 12  1  0  0  0  0
 10 11  1  0  0  0  0
M  END
> <Index>
17951

> <PropertyFieldDistance>
nan

$$$$
7634264
BBcorina  12272117083D 1   1.00000     0.00000 
CORINA 4.3.0 0026  30.10.2019
 13 13  0  0  0  0  0  0  0  0999 V2000
  -38.0513    6.8324  -39.1851 C   0  0  0  0  0  0  0  0  0  0  0  0
  -37.1908    6.7307  -40.3502 O   0  0  0  0  0  0  0  0  0  0  0  0
  -35.8803    6.5461  -40.1256 C   0  0  0  0  0  0  0  0  0  0  0  0
  -35.4660    6.4721  -38.9930 O   0  0  0  0  0  0  0  0  0  0  0  0
  -34.9259    6.4312  -41.2862 C   0  0  0  0  0  0  0  0  0  0  0  0
  -33.5858    6.3573  -40.7953 O   0  0  0  0  0  0  0  0  0  0  0  0
  -35.2462    5.1675  -42.0868 C   0  0  0  0  0  0  0  0  0  0  0  0
  -36.6793    5.2476  -42.6203 C   0  0  0  0  0  0  0  0  0  0  0  0
  -36.9723    4.0086  -43.4694 C   0  0  0  0  0  0  0  0  0  0  0  0
  -36.0191    3.9414  -44.5845 N   0  0  0  0  0  0  0  0  0  0  0  0
  -34.6396    3.8164  -44.0971 C   0  0  0  0  0  0  0  0  0  0  0  0
  -34.2769    5.0496  -43.2664 C   0  0  0  0  0  0  0  0  0  0  0  0
  -36.4111    2.6624  -45.6495 X   0  0  0  0  0  0  0  0  0  0  0  0
  1  2  1  0  0  0  0
  2  3  1  0  0  0  0
  3  4  2  0  0  0  0
  3  5  1  0  0  0  0
  5  6  1  0  0  0  0
  5  7  1  0  0  0  0
  7  8  1  0  0  0  0
  7 12  1  0  0  0  0
  8  9  1  0  0  0  0
  9 10  1  0  0  0  0
 10 11  1  0  0  0  0
 10 13  1  0  0  0  0
 11 12  1  0  0  0  0
M  END
> <Index>
17954

> <PropertyFieldDistance>
nan

$$$$
13430954
BBcorina  12272117083D 1   1.00000     0.00000 
CORINA 4.3.0 0026  30.10.2019
  9 10  0  0  0  0  0  0  0  0999 V2000
  -36.6368    4.8436  -45.1338 N   0  0  0  0  0  0  0  0  0  0  0  0
  -35.8068    3.6353  -45.2280 C   0  0  0  0  0  0  0  0  0  0  0  0
  -34.4315    3.7644  -44.5057 C   0  0  0  0  0  0  0  0  0  0  0  0
  -34.6445    2.3138  -44.0511 C   0  0  0  0  0  0  0  0  0  0  0  0
  -34.3849    2.0757  -42.5583 C   0  0  0  0  0  0  0  0  0  0  0  0
  -35.6124    2.5867  -41.7912 C   0  0  0  0  0  0  0  0  0  0  0  0
  -36.5966    3.1452  -42.8295 C   0  0  0  0  0  0  0  0  0  0  0  0
  -36.1645    2.5592  -44.1871 C   0  0  0  0  0  0  0  0  0  0  0  0
  -36.6293    5.7088  -46.6088 X   0  0  0  0  0  0  0  0  0  0  0  0
  1  2  1  0  0  0  0
  1  9  1  0  0  0  0
  2  3  1  0  0  0  0
  2  8  1  0  0  0  0
  3  4  1  0  0  0  0
  4  5  1  0  0  0  0
  4  8  1  0  0  0  0
  5  6  1  0  0  0  0
  6  7  1  0  0  0  0
  7  8  1  0  0  0  0
M  END
> <Index>
17962

> <PropertyFieldDistance>
nan

$$$$
12908856
BBcorina  12272117083D 1   1.00000     0.00000 
CORINA 4.3.0 0026  30.10.2019
 11 12  0  0  0  0  0  0  0  0999 V2000
  -36.3523    2.8522  -45.4892 N   0  0  0  0  0  0  0  0  0  0  0  0
  -36.0190    3.9406  -44.5846 N   0  0  0  0  0  0  0  0  0  0  0  0
  -36.9728    4.0093  -43.4701 C   0  0  0  0  0  0  0  0  0  0  0  0
  -36.6780    5.2477  -42.6199 C   0  0  0  0  0  0  0  0  0  0  0  0
  -36.8120    6.5011  -43.4887 C   0  0  0  0  0  0  0  0  0  0  0  0
  -35.8376    6.4117  -44.6648 C   0  0  0  0  0  0  0  0  0  0  0  0
  -34.4058    6.3020  -44.1368 C   0  0  0  0  0  0  0  0  0  0  0  0
  -34.2782    5.0498  -43.2658 C   0  0  0  0  0  0  0  0  0  0  0  0
  -35.2458    5.1589  -42.0831 C   0  0  0  0  0  0  0  0  0  0  0  0
  -34.6393    3.8163  -44.0974 C   0  0  0  0  0  0  0  0  0  0  0  0
  -36.7800    3.4483  -47.0337 X   0  0  0  0  0  0  0  0  0  0  0  0
  1  2  1  0  0  0  0
  1 11  1  0  0  0  0
  2  3  1  0  0  0  0
  2 10  1  0  0  0  0
  3  4  1  0  0  0  0
  4  5  1  0  0  0  0
  4  9  1  0  0  0  0
  5  6  1  0  0  0  0
  6  7  1  0  0  0  0
  7  8  1  0  0  0  0
  8  9  1  0  0  0  0
  8 10  1  0  0  0  0
M  END
> <Index>
17971

> <PropertyFieldDistance>
nan

$$$$
13432158
BBcorina  12272117083D 1   1.00000     0.00000 
CORINA 4.3.0 0026  30.10.2019
 13 14  0  0  0  0  0  0  0  0999 V2000
  -38.0780    1.7859  -44.7738 O   0  0  0  0  0  0  0  0  0  0  0  0
  -36.7583    1.4095  -45.1724 C   0  0  0  0  0  0  0  0  0  0  0  0
  -35.9386    2.6659  -45.4733 C   0  0  0  0  0  0  0  0  0  0  0  0
  -35.7286    3.4224  -44.2318 N   0  0  0  0  0  0  0  0  0  0  0  0
  -36.9464    4.1664  -43.8530 C   0  0  0  0  0  0  0  0  0  0  0  0
  -36.7577    4.9297  -42.5453 C   0  0  0  0  0  0  0  0  0  0  0  0
  -35.5144    5.8342  -42.6015 C   0  0  0  0  0  0  0  0  0  0  0  0
  -34.3376    4.9465  -42.9645 C   0  0  0  0  0  0  0  0  0  0  0  0
  -34.6183    4.3434  -44.3688 C   0  0  0  0  0  0  0  0  0  0  0  0
  -33.2539    3.7584  -44.7373 C   0  0  0  0  0  0  0  0  0  0  0  0
  -32.2463    4.6433  -43.9603 C   0  0  0  0  0  0  0  0  0  0  0  0
  -33.0485    5.6174  -43.1667 N   0  0  0  0  0  0  0  0  0  0  0  0
  -32.2936    5.9582  -41.6707 X   0  0  0  0  0  0  0  0  0  0  0  0
  1  2  1  0  0  0  0
  2  3  1  0  0  0  0
  3  4  1  0  0  0  0
  4  5  1  0  0  0  0
  4  9  1  0  0  0  0
  5  6  1  0  0  0  0
  6  7  1  0  0  0  0
  7  8  1  0  0  0  0
  8  9  1  0  0  0  0
  8 12  1  0  0  0  0
  9 10  1  0  0  0  0
 10 11  1  0  0  0  0
 11 12  1  0  0  0  0
 12 13  1  0  0  0  0
M  END
> <Index>
17974

> <PropertyFieldDistance>
nan

$$$$
13225512
BBcorina  12272117083D 1   1.00000     0.00000 
CORINA 4.3.0 0026  30.10.2019
 13 14  0  0  0  0  0  0  0  0999 V2000
  -37.8071    9.5582  -42.4178 F   0  0  0  0  0  0  0  0  0  0  0  0
  -37.3183    8.2564  -42.2646 C   0  0  0  0  0  0  0  0  0  0  0  0
  -38.3685    7.4026  -41.9105 F   0  0  0  0  0  0  0  0  0  0  0  0
  -36.7002    7.7853  -43.5825 C   0  0  0  0  0  0  0  0  0  0  0  0
  -36.0555    6.4124  -43.3815 C   0  0  0  0  0  0  0  0  0  0  0  0
  -37.1548    5.3789  -43.0495 C   0  0  0  0  0  0  0  0  0  0  0  0
  -36.5039    3.9874  -42.9933 C   0  0  0  0  0  0  0  0  0  0  0  0
  -35.2215    4.0842  -42.1351 C   0  0  0  0  0  0  0  0  0  0  0  0
  -34.1062    4.4612  -43.1323 C   0  0  0  0  0  0  0  0  0  0  0  0
  -34.8160    4.5580  -44.5024 C   0  0  0  0  0  0  0  0  0  0  0  0
  -35.3303    5.9974  -44.6648 C   0  0  0  0  0  0  0  0  0  0  0  0
  -36.0064    3.6780  -44.3602 N   0  0  0  0  0  0  0  0  0  0  0  0
  -35.5700    2.0302  -44.4951 X   0  0  0  0  0  0  0  0  0  0  0  0
  1  2  1  0  0  0  0
  2  3  1  0  0  0  0
  2  4  1  0  0  0  0
  4  5  1  0  0  0  0
  5  6  1  0  0  0  0
  5 11  1  0  0  0  0
  6  7  1  0  0  0  0
  7  8  1  0  0  0  0
  7 12  1  0  0  0  0
  8  9  1  0  0  0  0
  9 10  1  0  0  0  0
 10 11  1  0  0  0  0
 10 12  1  0  0  0  0
 12 13  1  0  0  0  0
M  END
> <Index>
17977

> <PropertyFieldDistance>
nan

$$$$
9748132
BBcorina  12272117083D 1   1.00000     0.00000 
CORINA 4.3.0 0026  30.10.2019
 10 10  0  0  0  0  0  0  0  0999 V2000
  -36.3409    2.3418  -44.9173 C   0  0  0  0  0  0  0  0  0  0  0  0
  -36.0390    3.6659  -44.3572 N   0  0  0  0  0  0  0  0  0  0  0  0
  -36.9565    3.9941  -43.2572 C   0  0  0  0  0  0  0  0  0  0  0  0
  -36.6612    5.4094  -42.7551 C   0  0  0  0  0  0  0  0  0  0  0  0
  -35.2624    5.4869  -42.3113 N   0  0  0  0  0  0  0  0  0  0  0  0
  -34.3448    5.1588  -43.4113 C   0  0  0  0  0  0  0  0  0  0  0  0
  -34.6402    3.7435  -43.9134 C   0  0  0  0  0  0  0  0  0  0  0  0
  -34.4076    2.7412  -42.7810 C   0  0  0  0  0  0  0  0  0  0  0  0
  -33.7138    3.4134  -45.0854 C   0  0  0  0  0  0  0  0  0  0  0  0
  -34.9109    7.0282  -41.6593 X   0  0  0  0  0  0  0  0  0  0  0  0
  1  2  1  0  0  0  0
  2  3  1  0  0  0  0
  2  7  1  0  0  0  0
  3  4  1  0  0  0  0
  4  5  1  0  0  0  0
  5  6  1  0  0  0  0
  5 10  1  0  0  0  0
  6  7  1  0  0  0  0
  7  8  1  0  0  0  0
  7  9  1  0  0  0  0
M  END
> <Index>
17990

> <PropertyFieldDistance>
nan

$$$$
12626034
BBcorina  12272117083D 1   1.00000     0.00000 
CORINA 4.3.0 0026  30.10.2019
 12 13  0  0  0  0  0  0  0  0999 V2000
  -36.3358    2.3140  -45.0150 C   0  0  0  0  0  0  0  0  0  0  0  0
  -36.0590    3.4506  -44.1332 N   0  0  0  0  0  0  0  0  0  0  0  0
  -37.0267    4.1545  -43.5344 C   0  0  0  0  0  0  0  0  0  0  0  0
  -38.2158    3.9453  -43.6443 O   0  0  0  0  0  0  0  0  0  0  0  0
  -36.4059    5.2518  -42.6994 C   0  0  0  0  0  0  0  0  0  0  0  0
  -36.7274    6.6191  -43.3380 C   0  0  0  0  0  0  0  0  0  0  0  0
  -35.4367    7.3537  -43.3262 N   0  0  0  0  0  0  0  0  0  0  0  0
  -34.4273    6.3226  -43.6780 C   0  0  0  0  0  0  0  0  0  0  0  0
  -34.8826    5.0555  -42.9246 C   0  0  0  0  0  0  0  0  0  0  0  0
  -34.8176    3.8662  -43.8564 C   0  0  0  0  0  0  0  0  0  0  0  0
  -33.7997    3.3689  -44.2877 O   0  0  0  0  0  0  0  0  0  0  0  0
  -35.4428    8.6218  -44.4735 X   0  0  0  0  0  0  0  0  0  0  0  0
  1  2  1  0  0  0  0
  2  3  1  0  0  0  0
  2 10  1  0  0  0  0
  3  4  2  0  0  0  0
  3  5  1  0  0  0  0
  5  6  1  0  0  0  0
  5  9  1  0  0  0  0
  6  7  1  0  0  0  0
  7  8  1  0  0  0  0
  7 12  1  0  0  0  0
  8  9  1  0  0  0  0
  9 10  1  0  0  0  0
 10 11  2  0  0  0  0
M  END
> <Index>
17995

> <PropertyFieldDistance>
nan

$$$$
17638210
BBcorina  12272117083D 1   1.00000     0.00000 
CORINA 4.3.0 0026  30.10.2019
 11 12  0  0  0  0  0  0  0  0999 V2000
  -35.4518    7.4421  -41.3030 C   0  0  0  0  0  0  0  0  0  0  0  0
  -35.1171    6.4809  -42.3060 O   0  0  0  0  0  0  0  0  0  0  0  0
  -36.0555    6.4124  -43.3815 C   0  0  0  0  0  0  0  0  0  0  0  0
  -37.1548    5.3789  -43.0495 C   0  0  0  0  0  0  0  0  0  0  0  0
  -36.5039    3.9874  -42.9933 C   0  0  0  0  0  0  0  0  0  0  0  0
  -35.2215    4.0842  -42.1351 C   0  0  0  0  0  0  0  0  0  0  0  0
  -34.1062    4.4612  -43.1323 C   0  0  0  0  0  0  0  0  0  0  0  0
  -34.8160    4.5580  -44.5024 C   0  0  0  0  0  0  0  0  0  0  0  0
  -35.3303    5.9974  -44.6648 C   0  0  0  0  0  0  0  0  0  0  0  0
  -36.0064    3.6780  -44.3602 N   0  0  0  0  0  0  0  0  0  0  0  0
  -35.5700    2.0302  -44.4951 X   0  0  0  0  0  0  0  0  0  0  0  0
  1  2  1  0  0  0  0
  2  3  1  0  0  0  0
  3  4  1  0  0  0  0
  3  9  1  0  0  0  0
  4  5  1  0  0  0  0
  5  6  1  0  0  0  0
  5 10  1  0  0  0  0
  6  7  1  0  0  0  0
  7  8  1  0  0  0  0
  8  9  1  0  0  0  0
  8 10  1  0  0  0  0
 10 11  1  0  0  0  0
M  END
> <Index>
17997

> <PropertyFieldDistance>
nan

$$$$
13206590
BBcorina  12272117083D 1   1.00000     0.00000 
CORINA 4.3.0 0026  30.10.2019
 12 13  0  0  0  0  0  0  0  0999 V2000
  -36.0191    3.9414  -44.5845 N   0  0  0  0  0  0  0  0  0  0  0  0
  -36.9723    4.0086  -43.4695 C   0  0  0  0  0  0  0  0  0  0  0  0
  -36.6793    5.2476  -42.6202 C   0  0  0  0  0  0  0  0  0  0  0  0
  -35.2461    5.1676  -42.0870 C   0  0  0  0  0  0  0  0  0  0  0  0
  -34.2769    5.0496  -43.2665 C   0  0  0  0  0  0  0  0  0  0  0  0
  -34.6396    3.8164  -44.0970 C   0  0  0  0  0  0  0  0  0  0  0  0
  -34.9316    6.4133  -41.2994 C   0  0  0  0  0  0  0  0  0  0  0  0
  -34.5807    6.4675  -40.0022 N   0  0  0  0  0  0  0  0  0  0  0  0
  -34.4035    7.7394  -39.7373 C   0  0  0  0  0  0  0  0  0  0  0  0
  -34.6490    8.4094  -40.8673 O   0  0  0  0  0  0  0  0  0  0  0  0
  -34.9494    7.6324  -41.7489 N   0  0  0  0  0  0  0  0  0  0  0  0
  -36.4111    2.6621  -45.6494 X   0  0  0  0  0  0  0  0  0  0  0  0
  1  2  1  0  0  0  0
  1  6  1  0  0  0  0
  1 12  1  0  0  0  0
  2  3  1  0  0  0  0
  3  4  1  0  0  0  0
  4  5  1  0  0  0  0
  4  7  1  0  0  0  0
  5  6  1  0  0  0  0
  7  8  1  0  0  0  0
  7 11  2  0  0  0  0
  8  9  2  0  0  0  0
  9 10  1  0  0  0  0
 10 11  1  0  0  0  0
M  END
> <Index>
18006

> <PropertyFieldDistance>
nan

$$$$
16897538
BBcorina  12272117083D 1   1.00000     0.00000 
CORINA 4.3.0 0026  30.10.2019
 11 12  0  0  0  0  0  0  0  0999 V2000
  -35.7203    2.3290  -44.5178 C   0  0  0  0  0  0  0  0  0  0  0  0
  -36.2920    3.6530  -44.2601 N   0  0  0  0  0  0  0  0  0  0  0  0
  -37.5720    4.0069  -44.4636 C   0  0  0  0  0  0  0  0  0  0  0  0
  -38.4106    3.2419  -44.8992 O   0  0  0  0  0  0  0  0  0  0  0  0
  -37.8388    5.2827  -44.1477 N   0  0  0  0  0  0  0  0  0  0  0  0
  -36.6072    5.9269  -43.6580 C   0  0  0  0  0  0  0  0  0  0  0  0
  -35.5657    4.8074  -43.7399 C   0  0  0  0  0  0  0  0  0  0  0  0
  -34.7371    4.5750  -42.4766 C   0  0  0  0  0  0  0  0  0  0  0  0
  -33.7366    5.4743  -43.0976 N   0  0  0  0  0  0  0  0  0  0  0  0
  -34.2592    5.1635  -44.4488 C   0  0  0  0  0  0  0  0  0  0  0  0
  -32.1532    4.8609  -42.8970 X   0  0  0  0  0  0  0  0  0  0  0  0
  1  2  1  0  0  0  0
  2  3  1  0  0  0  0
  2  7  1  0  0  0  0
  3  4  2  0  0  0  0
  3  5  1  0  0  0  0
  5  6  1  0  0  0  0
  6  7  1  0  0  0  0
  7  8  1  0  0  0  0
  7 10  1  0  0  0  0
  8  9  1  0  0  0  0
  9 10  1  0  0  0  0
  9 11  1  0  0  0  0
M  END
> <Index>
18010

> <PropertyFieldDistance>
nan

$$$$
11985126
BBcorina  12272117083D 1   1.00000     0.00000 
CORINA 4.3.0 0026  30.10.2019
  9  9  0  0  0  0  0  0  0  0999 V2000
  -34.4116    7.9438  -41.4728 C   0  0  0  0  0  0  0  0  0  0  0  0
  -35.1040    6.6492  -41.4223 N   0  0  0  0  0  0  0  0  0  0  0  0
  -35.6529    6.2941  -42.7378 C   0  0  0  0  0  0  0  0  0  0  0  0
  -36.3648    4.9429  -42.6456 C   0  0  0  0  0  0  0  0  0  0  0  0
  -37.0834    4.5315  -43.9432 C   0  0  0  0  0  0  0  0  0  0  0  0
  -36.5511    3.1736  -43.6942 N   0  0  0  0  0  0  0  0  0  0  0  0
  -36.0518    2.5680  -44.9359 C   0  0  0  0  0  0  0  0  0  0  0  0
  -35.4400    3.7373  -42.8919 C   0  0  0  0  0  0  0  0  0  0  0  0
  -36.3285    6.6553  -40.2288 X   0  0  0  0  0  0  0  0  0  0  0  0
  1  2  1  0  0  0  0
  2  3  1  0  0  0  0
  2  9  1  0  0  0  0
  3  4  1  0  0  0  0
  4  5  1  0  0  0  0
  4  8  1  0  0  0  0
  5  6  1  0  0  0  0
  6  7  1  0  0  0  0
  6  8  1  0  0  0  0
M  END
> <Index>
18021

> <PropertyFieldDistance>
nan

$$$$
9744886
BBcorina  12272117083D 1   1.00000     0.00000 
CORINA 4.3.0 0026  30.10.2019
 11 11  0  0  0  0  0  0  0  0999 V2000
  -34.7189    0.8972  -44.8836 C   0  0  0  0  0  0  0  0  0  0  0  0
  -35.6551    1.6200  -45.8543 C   0  0  0  0  0  0  0  0  0  0  0  0
  -36.3535    0.6324  -46.6879 N   0  0  0  0  0  0  0  0  0  0  0  0
  -36.6645    2.4228  -45.0747 C   0  0  0  0  0  0  0  0  0  0  0  0
  -37.8490    2.1947  -45.2012 O   0  0  0  0  0  0  0  0  0  0  0  0
  -36.2510    3.3942  -44.2370 N   0  0  0  0  0  0  0  0  0  0  0  0
  -37.1237    4.2497  -43.4195 C   0  0  0  0  0  0  0  0  0  0  0  0
  -36.2133    5.2258  -42.6450 C   0  0  0  0  0  0  0  0  0  0  0  0
  -34.9168    5.2422  -43.4972 C   0  0  0  0  0  0  0  0  0  0  0  0
  -34.8483    3.7709  -43.9838 C   0  0  0  0  0  0  0  0  0  0  0  0
  -35.4686    0.2978  -48.1125 X   0  0  0  0  0  0  0  0  0  0  0  0
  1  2  1  0  0  0  0
  2  3  1  0  0  0  0
  2  4  1  0  0  0  0
  3 11  1  0  0  0  0
  4  5  2  0  0  0  0
  4  6  1  0  0  0  0
  6  7  1  0  0  0  0
  6 10  1  0  0  0  0
  7  8  1  0  0  0  0
  8  9  1  0  0  0  0
  9 10  1  0  0  0  0
M  END
> <Index>
18024

> <PropertyFieldDistance>
nan

$$$$
12902844
BBcorina  12272117083D 1   1.00000     0.00000 
CORINA 4.3.0 0026  30.10.2019
 16 17  0  0  0  0  0  0  0  0999 V2000
  -36.4278    2.6264  -45.2582 C   0  0  0  0  0  0  0  0  0  0  0  0
  -35.9861    3.2987  -44.0290 N   0  0  0  0  0  0  0  0  0  0  0  0
  -37.0075    4.2387  -43.5466 C   0  0  0  0  0  0  0  0  0  0  0  0
  -36.5442    4.8575  -42.2256 C   0  0  0  0  0  0  0  0  0  0  0  0
  -35.2594    5.5405  -42.4316 N   0  0  0  0  0  0  0  0  0  0  0  0
  -34.2380    4.6006  -42.9140 C   0  0  0  0  0  0  0  0  0  0  0  0
  -34.7013    3.9817  -44.2349 C   0  0  0  0  0  0  0  0  0  0  0  0
  -34.8394    6.1798  -41.2629 C   0  0  0  0  0  0  0  0  0  0  0  0
  -33.6431    6.8856  -41.2470 C   0  0  0  0  0  0  0  0  0  0  0  0
  -33.2310    7.5169  -40.0899 C   0  0  0  0  0  0  0  0  0  0  0  0
  -34.0076    7.4469  -38.9480 C   0  0  0  0  0  0  0  0  0  0  0  0
  -33.5550    8.1374  -37.6873 C   0  0  0  0  0  0  0  0  0  0  0  0
  -34.0802    9.5091  -37.6647 N   0  0  0  0  0  0  0  0  0  0  0  0
  -35.1992    6.7451  -38.9603 C   0  0  0  0  0  0  0  0  0  0  0  0
  -35.6198    6.1159  -40.1154 C   0  0  0  0  0  0  0  0  0  0  0  0
  -33.5888   10.3303  -36.2475 X   0  0  0  0  0  0  0  0  0  0  0  0
  1  2  1  0  0  0  0
  2  3  1  0  0  0  0
  2  7  1  0  0  0  0
  3  4  1  0  0  0  0
  4  5  1  0  0  0  0
  5  6  1  0  0  0  0
  5  8  1  0  0  0  0
  6  7  1  0  0  0  0
  8  9  2  0  0  0  0
  8 15  1  0  0  0  0
  9 10  1  0  0  0  0
 10 11  2  0  0  0  0
 11 12  1  0  0  0  0
 11 14  1  0  0  0  0
 12 13  1  0  0  0  0
 13 16  1  0  0  0  0
 14 15  2  0  0  0  0
M  END
> <Index>
18049

> <PropertyFieldDistance>
nan

$$$$
3173304
BBcorina  12272117083D 1   1.00000     0.00000 
CORINA 4.3.0 0026  30.10.2019
 13 13  0  0  0  0  0  0  0  0999 V2000
  -35.2774    0.1107  -48.1505 C   0  0  0  0  0  0  0  0  0  0  0  0
  -36.2432    0.2671  -46.6230 S   0  0  0  0  0  0  0  0  0  0  0  0
  -35.7599   -0.6824  -45.6827 O   0  0  0  0  0  0  0  0  0  0  0  0
  -37.6239    0.2701  -46.9588 O   0  0  0  0  0  0  0  0  0  0  0  0
  -35.7823    1.9276  -46.0565 C   0  0  0  0  0  0  0  0  0  0  0  0
  -36.5152    2.2426  -44.7509 C   0  0  0  0  0  0  0  0  0  0  0  0
  -36.1420    3.5873  -44.2922 N   0  0  0  0  0  0  0  0  0  0  0  0
  -36.9971    4.0198  -43.1779 C   0  0  0  0  0  0  0  0  0  0  0  0
  -36.6299    5.4522  -42.7828 C   0  0  0  0  0  0  0  0  0  0  0  0
  -35.2107    5.5048  -42.4050 N   0  0  0  0  0  0  0  0  0  0  0  0
  -34.3557    5.0723  -43.5191 C   0  0  0  0  0  0  0  0  0  0  0  0
  -34.7229    3.6399  -43.9143 C   0  0  0  0  0  0  0  0  0  0  0  0
  -34.7764    7.0700  -41.8709 X   0  0  0  0  0  0  0  0  0  0  0  0
  1  2  1  0  0  0  0
  2  3  2  0  0  0  0
  2  4  2  0  0  0  0
  2  5  1  0  0  0  0
  5  6  1  0  0  0  0
  6  7  1  0  0  0  0
  7  8  1  0  0  0  0
  7 12  1  0  0  0  0
  8  9  1  0  0  0  0
  9 10  1  0  0  0  0
 10 11  1  0  0  0  0
 10 13  1  0  0  0  0
 11 12  1  0  0  0  0
M  END
> <Index>
18051

> <PropertyFieldDistance>
nan

$$$$
11686312
BBcorina  12272117083D 1   1.00000     0.00000 
CORINA 4.3.0 0026  30.10.2019
 13 14  0  0  0  0  0  0  0  0999 V2000
  -36.0193    3.9412  -44.5845 N   0  0  0  0  0  0  0  0  0  0  0  0
  -36.9723    4.0084  -43.4693 C   0  0  0  0  0  0  0  0  0  0  0  0
  -36.6796    5.2477  -42.6204 C   0  0  0  0  0  0  0  0  0  0  0  0
  -35.2464    5.1684  -42.0875 C   0  0  0  0  0  0  0  0  0  0  0  0
  -34.2763    5.0495  -43.2663 C   0  0  0  0  0  0  0  0  0  0  0  0
  -34.6397    3.8168  -44.0972 C   0  0  0  0  0  0  0  0  0  0  0  0
  -34.9273    6.4335  -41.2884 C   0  0  0  0  0  0  0  0  0  0  0  0
  -33.4939    6.3544  -40.7590 C   0  0  0  0  0  0  0  0  0  0  0  0
  -33.1748    7.6194  -39.9598 C   0  0  0  0  0  0  0  0  0  0  0  0
  -34.1467    7.7387  -38.7843 C   0  0  0  0  0  0  0  0  0  0  0  0
  -35.5802    7.8178  -39.3135 C   0  0  0  0  0  0  0  0  0  0  0  0
  -35.8992    6.5527  -40.1128 C   0  0  0  0  0  0  0  0  0  0  0  0
  -36.4111    2.6614  -45.6490 X   0  0  0  0  0  0  0  0  0  0  0  0
  1  2  1  0  0  0  0
  1  6  1  0  0  0  0
  1 13  1  0  0  0  0
  2  3  1  0  0  0  0
  3  4  1  0  0  0  0
  4  5  1  0  0  0  0
  4  7  1  0  0  0  0
  5  6  1  0  0  0  0
  7  8  1  0  0  0  0
  7 12  1  0  0  0  0
  8  9  1  0  0  0  0
  9 10  1  0  0  0  0
 10 11  1  0  0  0  0
 11 12  1  0  0  0  0
M  END
> <Index>
18071

> <PropertyFieldDistance>
nan

$$$$
11735960
BBcorina  12272117083D 1   1.00000     0.00000 
CORINA 4.3.0 0026  30.10.2019
  8  8  0  0  0  0  0  0  0  0999 V2000
  -32.9695    4.9207  -42.7856 F   0  0  0  0  0  0  0  0  0  0  0  0
  -34.2770    5.0496  -43.2665 C   0  0  0  0  0  0  0  0  0  0  0  0
  -35.2462    5.1675  -42.0870 C   0  0  0  0  0  0  0  0  0  0  0  0
  -36.6793    5.2476  -42.6202 C   0  0  0  0  0  0  0  0  0  0  0  0
  -36.9723    4.0087  -43.4695 C   0  0  0  0  0  0  0  0  0  0  0  0
  -36.0191    3.9414  -44.5845 N   0  0  0  0  0  0  0  0  0  0  0  0
  -34.6396    3.8164  -44.0970 C   0  0  0  0  0  0  0  0  0  0  0  0
  -36.4111    2.6622  -45.6494 X   0  0  0  0  0  0  0  0  0  0  0  0
  1  2  1  0  0  0  0
  2  3  1  0  0  0  0
  2  7  1  0  0  0  0
  3  4  1  0  0  0  0
  4  5  1  0  0  0  0
  5  6  1  0  0  0  0
  6  7  1  0  0  0  0
  6  8  1  0  0  0  0
M  END
> <Index>
18073

> <PropertyFieldDistance>
nan

$$$$
8695970
BBcorina  12272117083D 1   1.00000     0.00000 
CORINA 4.3.0 0026  30.10.2019
 14 15  0  0  0  0  0  0  0  0999 V2000
  -36.9637    3.1858  -47.2419 C   0  0  0  0  0  0  0  0  0  0  0  0
  -36.7420    2.1929  -46.1877 N   0  0  0  0  0  0  0  0  0  0  0  0
  -36.9076    0.7998  -46.2789 N   0  0  0  0  0  0  0  0  0  0  0  0
  -36.6048    0.3120  -45.1247 N   0  0  0  0  0  0  0  0  0  0  0  0
  -36.2663    1.2521  -44.3181 N   0  0  0  0  0  0  0  0  0  0  0  0
  -36.3332    2.4201  -44.9180 C   0  0  0  0  0  0  0  0  0  0  0  0
  -36.0399    3.6504  -44.3566 N   0  0  0  0  0  0  0  0  0  0  0  0
  -36.9545    3.9548  -43.2488 C   0  0  0  0  0  0  0  0  0  0  0  0
  -36.6963    5.3781  -42.7489 C   0  0  0  0  0  0  0  0  0  0  0  0
  -35.2427    5.4942  -42.2820 C   0  0  0  0  0  0  0  0  0  0  0  0
  -34.3119    5.1251  -43.4405 C   0  0  0  0  0  0  0  0  0  0  0  0
  -34.6390    3.7092  -43.9203 C   0  0  0  0  0  0  0  0  0  0  0  0
  -34.9727    6.8737  -41.8556 N   0  0  0  0  0  0  0  0  0  0  0  0
  -33.7815    6.9140  -40.6295 X   0  0  0  0  0  0  0  0  0  0  0  0
  1  2  1  0  0  0  0
  2  3  1  0  0  0  0
  2  6  1  0  0  0  0
  3  4  2  0  0  0  0
  4  5  1  0  0  0  0
  5  6  2  0  0  0  0
  6  7  1  0  0  0  0
  7  8  1  0  0  0  0
  7 12  1  0  0  0  0
  8  9  1  0  0  0  0
  9 10  1  0  0  0  0
 10 11  1  0  0  0  0
 10 13  1  0  0  0  0
 11 12  1  0  0  0  0
 13 14  1  0  0  0  0
M  END
> <Index>
18093

> <PropertyFieldDistance>
nan

$$$$
8749778
BBcorina  12272117083D 1   1.00000     0.00000 
CORINA 4.3.0 0026  30.10.2019
 11 11  0  0  0  0  0  0  0  0999 V2000
  -36.1059    1.6538  -45.9846 C   0  0  0  0  0  0  0  0  0  0  0  0
  -36.3933    2.1751  -44.5753 C   0  0  0  0  0  0  0  0  0  0  0  0
  -36.0172    3.5927  -44.4913 N   0  0  0  0  0  0  0  0  0  0  0  0
  -37.8850    2.0243  -44.2700 C   0  0  0  0  0  0  0  0  0  0  0  0
  -38.6923    2.7771  -45.3448 C   0  0  0  0  0  0  0  0  0  0  0  0
  -40.1452    3.0559  -44.9147 C   0  0  0  0  0  0  0  0  0  0  0  0
  -40.7736    1.8819  -44.2140 C   0  0  0  0  0  0  0  0  0  0  0  0
  -40.5909    2.0640  -42.6932 C   0  0  0  0  0  0  0  0  0  0  0  0
  -39.2613    1.6787  -42.2441 C   0  0  0  0  0  0  0  0  0  0  0  0
  -38.1526    2.5405  -42.8822 C   0  0  0  0  0  0  0  0  0  0  0  0
  -34.3881    3.7666  -44.0016 X   0  0  0  0  0  0  0  0  0  0  0  0
  1  2  1  0  0  0  0
  2  3  1  0  0  0  0
  2  4  1  0  0  0  0
  3 11  1  0  0  0  0
  4  5  1  0  0  0  0
  4 10  1  0  0  0  0
  5  6  1  0  0  0  0
  6  7  1  0  0  0  0
  7  8  1  0  0  0  0
  8  9  1  0  0  0  0
  9 10  1  0  0  0  0
M  END
> <Index>
18105

> <PropertyFieldDistance>
nan

$$$$
13036794
BBcorina  12272117083D 1   1.00000     0.00000 
CORINA 4.3.0 0026  30.10.2019
 11 12  0  0  0  0  0  0  0  0999 V2000
  -32.2948    2.6878  -43.1589 N   0  0  0  0  0  0  0  0  0  0  0  0
  -33.6608    2.1475  -43.1488 C   0  0  0  0  0  0  0  0  0  0  0  0
  -34.4586    2.6833  -41.9322 C   0  0  0  0  0  0  0  0  0  0  0  0
  -35.8358    2.5946  -42.3645 O   0  0  0  0  0  0  0  0  0  0  0  0
  -35.8644    2.9839  -43.7416 C   0  0  0  0  0  0  0  0  0  0  0  0
  -36.2071    4.4724  -43.8767 C   0  0  0  0  0  0  0  0  0  0  0  0
  -37.4965    4.5477  -44.7230 C   0  0  0  0  0  0  0  0  0  0  0  0
  -38.1614    3.1621  -44.5270 C   0  0  0  0  0  0  0  0  0  0  0  0
  -36.9472    2.1988  -44.4997 C   0  0  0  0  0  0  0  0  0  0  0  0
  -34.4812    2.6959  -44.3435 C   0  0  0  0  0  0  0  0  0  0  0  0
  -32.3119    4.3975  -43.1301 X   0  0  0  0  0  0  0  0  0  0  0  0
  1  2  1  0  0  0  0
  1 11  1  0  0  0  0
  2  3  1  0  0  0  0
  2 10  1  0  0  0  0
  3  4  1  0  0  0  0
  4  5  1  0  0  0  0
  5  6  1  0  0  0  0
  5  9  1  0  0  0  0
  5 10  1  0  0  0  0
  6  7  1  0  0  0  0
  7  8  1  0  0  0  0
  8  9  1  0  0  0  0
M  END
> <Index>
18107

> <PropertyFieldDistance>
nan

$$$$
12526974
BBcorina  12272117083D 1   1.00000     0.00000 
CORINA 4.3.0 0026  30.10.2019
 16 16  0  0  0  0  0  0  0  0999 V2000
  -37.3730    0.3460  -46.5025 C   0  0  0  0  0  0  0  0  0  0  0  0
  -38.0326    1.7256  -46.5548 C   0  0  0  0  0  0  0  0  0  0  0  0
  -39.5521    1.5620  -46.6260 C   0  0  0  0  0  0  0  0  0  0  0  0
  -37.5422    2.4786  -47.7930 C   0  0  0  0  0  0  0  0  0  0  0  0
  -37.6818    2.4752  -45.3619 O   0  0  0  0  0  0  0  0  0  0  0  0
  -36.3729    2.7079  -45.1490 C   0  0  0  0  0  0  0  0  0  0  0  0
  -35.5463    2.2956  -45.9385 O   0  0  0  0  0  0  0  0  0  0  0  0
  -35.9794    3.3979  -44.0602 N   0  0  0  0  0  0  0  0  0  0  0  0
  -36.9670    3.9023  -43.0963 C   0  0  0  0  0  0  0  0  0  0  0  0
  -36.7430    5.4049  -42.9019 C   0  0  0  0  0  0  0  0  0  0  0  0
  -35.2877    5.6519  -42.4977 C   0  0  0  0  0  0  0  0  0  0  0  0
  -35.0780    7.0892  -42.2782 N   0  0  0  0  0  0  0  0  0  0  0  0
  -34.3578    5.1653  -43.6116 C   0  0  0  0  0  0  0  0  0  0  0  0
  -34.6653    5.8547  -44.8249 O   0  0  0  0  0  0  0  0  0  0  0  0
  -34.5547    3.6596  -43.8142 C   0  0  0  0  0  0  0  0  0  0  0  0
  -35.4110    7.9810  -43.6987 X   0  0  0  0  0  0  0  0  0  0  0  0
  1  2  1  0  0  0  0
  2  3  1  0  0  0  0
  2  4  1  0  0  0  0
  2  5  1  0  0  0  0
  5  6  1  0  0  0  0
  6  7  2  0  0  0  0
  6  8  1  0  0  0  0
  8  9  1  0  0  0  0
  8 15  1  0  0  0  0
  9 10  1  0  0  0  0
 10 11  1  0  0  0  0
 11 12  1  0  0  0  0
 11 13  1  0  0  0  0
 12 16  1  0  0  0  0
 13 14  1  0  0  0  0
 13 15  1  0  0  0  0
M  END
> <Index>
18109

> <PropertyFieldDistance>
nan

$$$$
12547976
BBcorina  12272117083D 1   1.00000     0.00000 
CORINA 4.3.0 0026  30.10.2019
 10 10  0  0  0  0  0  0  0  0999 V2000
  -36.0435    7.5322  -40.9622 C   0  0  0  0  0  0  0  0  0  0  0  0
  -34.9460    6.5589  -41.3971 C   0  0  0  0  0  0  0  0  0  0  0  0
  -33.7239    7.2741  -41.5897 O   0  0  0  0  0  0  0  0  0  0  0  0
  -35.3535    5.8833  -42.7079 C   0  0  0  0  0  0  0  0  0  0  0  0
  -36.6585    5.1099  -42.5008 C   0  0  0  0  0  0  0  0  0  0  0  0
  -37.0291    4.3869  -43.7977 C   0  0  0  0  0  0  0  0  0  0  0  0
  -35.9480    3.4664  -44.1723 N   0  0  0  0  0  0  0  0  0  0  0  0
  -34.6958    4.1916  -44.4226 C   0  0  0  0  0  0  0  0  0  0  0  0
  -34.2559    4.9088  -43.1442 C   0  0  0  0  0  0  0  0  0  0  0  0
  -36.3899    2.5211  -45.5270 X   0  0  0  0  0  0  0  0  0  0  0  0
  1  2  1  0  0  0  0
  2  3  1  0  0  0  0
  2  4  1  0  0  0  0
  4  5  1  0  0  0  0
  4  9  1  0  0  0  0
  5  6  1  0  0  0  0
  6  7  1  0  0  0  0
  7  8  1  0  0  0  0
  7 10  1  0  0  0  0
  8  9  1  0  0  0  0
M  END
> <Index>
18110

> <PropertyFieldDistance>
nan

$$$$
12548006
BBcorina  12272117083D 1   1.00000     0.00000 
CORINA 4.3.0 0026  30.10.2019
 10 10  0  0  0  0  0  0  0  0999 V2000
  -36.0435    7.5322  -40.9622 C   0  0  0  0  0  0  0  0  0  0  0  0
  -34.9460    6.5589  -41.3971 C   0  0  0  0  0  0  0  0  0  0  0  0
  -33.7239    7.2741  -41.5897 O   0  0  0  0  0  0  0  0  0  0  0  0
  -35.3535    5.8833  -42.7079 C   0  0  0  0  0  0  0  0  0  0  0  0
  -36.6585    5.1099  -42.5008 C   0  0  0  0  0  0  0  0  0  0  0  0
  -37.0291    4.3869  -43.7977 C   0  0  0  0  0  0  0  0  0  0  0  0
  -35.9480    3.4664  -44.1723 N   0  0  0  0  0  0  0  0  0  0  0  0
  -34.6958    4.1916  -44.4226 C   0  0  0  0  0  0  0  0  0  0  0  0
  -34.2559    4.9088  -43.1442 C   0  0  0  0  0  0  0  0  0  0  0  0
  -36.3899    2.5211  -45.5270 X   0  0  0  0  0  0  0  0  0  0  0  0
  1  2  1  0  0  0  0
  2  3  1  0  0  0  0
  2  4  1  0  0  0  0
  4  5  1  0  0  0  0
  4  9  1  0  0  0  0
  5  6  1  0  0  0  0
  6  7  1  0  0  0  0
  7  8  1  0  0  0  0
  7 10  1  0  0  0  0
  8  9  1  0  0  0  0
M  END
> <Index>
18111

> <PropertyFieldDistance>
nan

$$$$
8694396
BBcorina  12272117083D 1   1.00000     0.00000 
CORINA 4.3.0 0026  30.10.2019
  9  9  0  0  0  0  0  0  0  0999 V2000
  -38.3493    4.4854  -43.8660 C   0  0  0  0  0  0  0  0  0  0  0  0
  -36.8425    4.5049  -43.8629 C   0  0  0  0  0  0  0  0  0  0  0  0
  -36.0838    5.5025  -43.5067 N   0  0  0  0  0  0  0  0  0  0  0  0
  -34.8456    5.1788  -43.6253 N   0  0  0  0  0  0  0  0  0  0  0  0
  -34.7471    3.9473  -44.0673 C   0  0  0  0  0  0  0  0  0  0  0  0
  -33.5740    3.2536  -44.3189 N   0  0  0  0  0  0  0  0  0  0  0  0
  -36.0180    3.4787  -44.2327 N   0  0  0  0  0  0  0  0  0  0  0  0
  -36.4163    2.1516  -44.7083 C   0  0  0  0  0  0  0  0  0  0  0  0
  -33.6155    1.5601  -44.5520 X   0  0  0  0  0  0  0  0  0  0  0  0
  1  2  1  0  0  0  0
  2  3  2  0  0  0  0
  2  7  1  0  0  0  0
  3  4  1  0  0  0  0
  4  5  2  0  0  0  0
  5  6  1  0  0  0  0
  5  7  1  0  0  0  0
  6  9  1  0  0  0  0
  7  8  1  0  0  0  0
M  END
> <Index>
18136

> <PropertyFieldDistance>
nan

$$$$
15420692
BBcorina  12272117083D 1   1.00000     0.00000 
CORINA 4.3.0 0026  30.10.2019
 10 11  0  0  0  0  0  0  0  0999 V2000
  -35.1979    2.0177  -46.7962 F   0  0  0  0  0  0  0  0  0  0  0  0
  -35.6634    2.7702  -45.7125 C   0  0  0  0  0  0  0  0  0  0  0  0
  -36.3873    3.9204  -46.0442 F   0  0  0  0  0  0  0  0  0  0  0  0
  -36.0861    2.0087  -44.4546 C   0  0  0  0  0  0  0  0  0  0  0  0
  -37.0344    2.7007  -43.4537 C   0  0  0  0  0  0  0  0  0  0  0  0
  -36.0964    3.4916  -42.5176 C   0  0  0  0  0  0  0  0  0  0  0  0
  -34.9898    3.9954  -43.4772 C   0  0  0  0  0  0  0  0  0  0  0  0
  -33.7514    4.2682  -42.7358 N   0  0  0  0  0  0  0  0  0  0  0  0
  -34.7828    2.8266  -44.4626 C   0  0  0  0  0  0  0  0  0  0  0  0
  -33.1990    2.8658  -41.9282 X   0  0  0  0  0  0  0  0  0  0  0  0
  1  2  1  0  0  0  0
  2  3  1  0  0  0  0
  2  4  1  0  0  0  0
  2  9  1  0  0  0  0
  4  5  1  0  0  0  0
  4  9  1  0  0  0  0
  5  6  1  0  0  0  0
  6  7  1  0  0  0  0
  7  8  1  0  0  0  0
  7  9  1  0  0  0  0
  8 10  1  0  0  0  0
M  END
> <Index>
18149

> <PropertyFieldDistance>
nan

$$$$
14792956
BBcorina  12272117083D 1   1.00000     0.00000 
CORINA 4.3.0 0026  30.10.2019
  9  9  0  0  0  0  0  0  0  0999 V2000
  -35.9479    3.4664  -44.1723 N   0  0  0  0  0  0  0  0  0  0  0  0
  -37.0291    4.3869  -43.7977 C   0  0  0  0  0  0  0  0  0  0  0  0
  -36.6587    5.1099  -42.5007 C   0  0  0  0  0  0  0  0  0  0  0  0
  -35.3534    5.8832  -42.7079 C   0  0  0  0  0  0  0  0  0  0  0  0
  -34.2559    4.9088  -43.1443 C   0  0  0  0  0  0  0  0  0  0  0  0
  -34.6958    4.1916  -44.4226 C   0  0  0  0  0  0  0  0  0  0  0  0
  -32.9819    5.6696  -43.4074 C   0  0  0  0  0  0  0  0  0  0  0  0
  -31.9006    5.3936  -42.7212 C   0  0  0  0  0  0  0  0  0  0  0  0
  -36.3899    2.5210  -45.5270 X   0  0  0  0  0  0  0  0  0  0  0  0
  1  2  1  0  0  0  0
  1  6  1  0  0  0  0
  1  9  1  0  0  0  0
  2  3  1  0  0  0  0
  3  4  1  0  0  0  0
  4  5  1  0  0  0  0
  5  6  1  0  0  0  0
  5  7  1  0  0  0  0
  7  8  2  0  0  0  0
M  END
> <Index>
18152

> <PropertyFieldDistance>
nan

$$$$
12878274
BBcorina  12272117083D 1   1.00000     0.00000 
CORINA 4.3.0 0026  30.10.2019
 14 16  0  0  0  0  0  0  0  0999 V2000
  -35.8689    3.4139  -44.0063 N   0  0  0  0  0  0  0  0  0  0  0  0
  -36.8220    4.0538  -43.0677 C   0  0  0  0  0  0  0  0  0  0  0  0
  -36.4350    5.5954  -43.0865 C   0  0  0  0  0  0  0  0  0  0  0  0
  -35.9481    5.7251  -44.5743 C   0  0  0  0  0  0  0  0  0  0  0  0
  -34.9622    4.5057  -44.4824 C   0  0  0  0  0  0  0  0  0  0  0  0
  -34.1577    4.9146  -43.2098 C   0  0  0  0  0  0  0  0  0  0  0  0
  -35.1301    5.6364  -42.3540 N   0  0  0  0  0  0  0  0  0  0  0  0
  -35.2404    5.0301  -41.1006 C   0  0  0  0  0  0  0  0  0  0  0  0
  -34.1515    4.3661  -40.5502 C   0  0  0  0  0  0  0  0  0  0  0  0
  -34.2622    3.7727  -39.3081 C   0  0  0  0  0  0  0  0  0  0  0  0
  -35.4572    3.8340  -38.6150 C   0  0  0  0  0  0  0  0  0  0  0  0
  -36.5449    4.4896  -39.1623 C   0  0  0  0  0  0  0  0  0  0  0  0
  -36.4411    5.0848  -40.4042 C   0  0  0  0  0  0  0  0  0  0  0  0
  -34.9816    2.1757  -43.2293 X   0  0  0  0  0  0  0  0  0  0  0  0
  1  2  1  0  0  0  0
  1  5  1  0  0  0  0
  1 14  1  0  0  0  0
  2  3  1  0  0  0  0
  3  4  1  0  0  0  0
  3  7  1  0  0  0  0
  4  5  1  0  0  0  0
  5  6  1  0  0  0  0
  6  7  1  0  0  0  0
  7  8  1  0  0  0  0
  8  9  2  0  0  0  0
  8 13  1  0  0  0  0
  9 10  1  0  0  0  0
 10 11  2  0  0  0  0
 11 12  1  0  0  0  0
 12 13  2  0  0  0  0
M  END
> <Index>
18161

> <PropertyFieldDistance>
nan

$$$$
11760330
BBcorina  12272117083D 1   1.00000     0.00000 
CORINA 4.3.0 0026  30.10.2019
 13 13  0  0  0  0  0  0  0  0999 V2000
  -36.4079    2.3737  -46.0089 C   0  0  0  0  0  0  0  0  0  0  0  0
  -36.1142    1.9765  -44.5608 C   0  0  0  0  0  0  0  0  0  0  0  0
  -37.3197    1.2340  -43.9810 C   0  0  0  0  0  0  0  0  0  0  0  0
  -37.0865    0.9580  -42.5572 N   0  0  0  0  0  0  0  0  0  0  0  0
  -35.8536    3.1836  -43.7653 N   0  0  0  0  0  0  0  0  0  0  0  0
  -37.0023    4.1002  -43.8068 C   0  0  0  0  0  0  0  0  0  0  0  0
  -36.7127    5.3134  -42.9191 C   0  0  0  0  0  0  0  0  0  0  0  0
  -37.8698    6.3093  -43.0199 C   0  0  0  0  0  0  0  0  0  0  0  0
  -35.5038    5.9401  -43.3565 O   0  0  0  0  0  0  0  0  0  0  0  0
  -34.3645    5.0761  -43.3281 C   0  0  0  0  0  0  0  0  0  0  0  0
  -33.1378    5.8309  -43.8441 C   0  0  0  0  0  0  0  0  0  0  0  0
  -34.6303    3.8604  -44.2200 C   0  0  0  0  0  0  0  0  0  0  0  0
  -38.4130    0.1271  -41.8687 X   0  0  0  0  0  0  0  0  0  0  0  0
  1  2  1  0  0  0  0
  2  3  1  0  0  0  0
  2  5  1  0  0  0  0
  3  4  1  0  0  0  0
  4 13  1  0  0  0  0
  5  6  1  0  0  0  0
  5 12  1  0  0  0  0
  6  7  1  0  0  0  0
  7  8  1  0  0  0  0
  7  9  1  0  0  0  0
  9 10  1  0  0  0  0
 10 11  1  0  0  0  0
 10 12  1  0  0  0  0
M  END
> <Index>
18162

> <PropertyFieldDistance>
nan

$$$$
13034858
BBcorina  12272117083D 1   1.00000     0.00000 
CORINA 4.3.0 0026  30.10.2019
 13 14  0  0  0  0  0  0  0  0999 V2000
  -34.2167    7.6255  -44.0907 C   0  0  0  0  0  0  0  0  0  0  0  0
  -35.5538    6.9454  -43.7897 C   0  0  0  0  0  0  0  0  0  0  0  0
  -35.3532    5.8831  -42.7070 C   0  0  0  0  0  0  0  0  0  0  0  0
  -36.6587    5.1099  -42.5007 C   0  0  0  0  0  0  0  0  0  0  0  0
  -37.0290    4.3869  -43.7977 C   0  0  0  0  0  0  0  0  0  0  0  0
  -35.9479    3.4664  -44.1723 N   0  0  0  0  0  0  0  0  0  0  0  0
  -34.6959    4.1916  -44.4227 C   0  0  0  0  0  0  0  0  0  0  0  0
  -34.2558    4.9088  -43.1443 C   0  0  0  0  0  0  0  0  0  0  0  0
  -34.9623    6.5311  -41.4480 N   0  0  0  0  0  0  0  0  0  0  0  0
  -33.5498    6.9535  -41.4874 C   0  0  0  0  0  0  0  0  0  0  0  0
  -33.9770    8.2534  -40.7914 C   0  0  0  0  0  0  0  0  0  0  0  0
  -35.3313    7.9590  -41.4517 C   0  0  0  0  0  0  0  0  0  0  0  0
  -36.3899    2.5210  -45.5270 X   0  0  0  0  0  0  0  0  0  0  0  0
  1  2  1  0  0  0  0
  2  3  1  0  0  0  0
  3  4  1  0  0  0  0
  3  8  1  0  0  0  0
  3  9  1  0  0  0  0
  4  5  1  0  0  0  0
  5  6  1  0  0  0  0
  6  7  1  0  0  0  0
  6 13  1  0  0  0  0
  7  8  1  0  0  0  0
  9 10  1  0  0  0  0
  9 12  1  0  0  0  0
 10 11  1  0  0  0  0
 11 12  1  0  0  0  0
M  END
> <Index>
18174

> <PropertyFieldDistance>
nan

$$$$
12632602
BBcorina  12272117083D 1   1.00000     0.00000 
CORINA 4.3.0 0026  30.10.2019
 11 11  0  0  0  0  0  0  0  0999 V2000
  -37.7036    7.0422  -42.5397 C   0  0  0  0  0  0  0  0  0  0  0  0
  -37.5898    5.7699  -41.6975 C   0  0  0  0  0  0  0  0  0  0  0  0
  -38.9533    5.0791  -41.6301 C   0  0  0  0  0  0  0  0  0  0  0  0
  -36.5702    4.8249  -42.3364 C   0  0  0  0  0  0  0  0  0  0  0  0
  -37.0096    4.4890  -43.7634 C   0  0  0  0  0  0  0  0  0  0  0  0
  -36.0087    3.6126  -44.3879 N   0  0  0  0  0  0  0  0  0  0  0  0
  -34.6919    4.2640  -44.4241 C   0  0  0  0  0  0  0  0  0  0  0  0
  -34.2525    4.6000  -42.9970 C   0  0  0  0  0  0  0  0  0  0  0  0
  -35.2534    5.4762  -42.3726 N   0  0  0  0  0  0  0  0  0  0  0  0
  -34.8300    5.8830  -41.0259 C   0  0  0  0  0  0  0  0  0  0  0  0
  -36.5014    3.1392  -45.9554 X   0  0  0  0  0  0  0  0  0  0  0  0
  1  2  1  0  0  0  0
  2  3  1  0  0  0  0
  2  4  1  0  0  0  0
  4  5  1  0  0  0  0
  4  9  1  0  0  0  0
  5  6  1  0  0  0  0
  6  7  1  0  0  0  0
  6 11  1  0  0  0  0
  7  8  1  0  0  0  0
  8  9  1  0  0  0  0
  9 10  1  0  0  0  0
M  END
> <Index>
18182

> <PropertyFieldDistance>
nan

$$$$
12644300
BBcorina  12272117083D 1   1.00000     0.00000 
CORINA 4.3.0 0026  30.10.2019
  9 10  0  0  0  0  0  0  0  0999 V2000
  -36.0218    3.6359  -44.4129 N   0  0  0  0  0  0  0  0  0  0  0  0
  -35.7889    2.4514  -43.5811 O   0  0  0  0  0  0  0  0  0  0  0  0
  -36.6079    2.4202  -42.4061 C   0  0  0  0  0  0  0  0  0  0  0  0
  -36.3167    3.6670  -41.5645 C   0  0  0  0  0  0  0  0  0  0  0  0
  -36.5868    4.9165  -42.4078 C   0  0  0  0  0  0  0  0  0  0  0  0
  -37.0551    4.4894  -43.8028 C   0  0  0  0  0  0  0  0  0  0  0  0
  -38.3512    3.6830  -43.6702 C   0  0  0  0  0  0  0  0  0  0  0  0
  -38.0811    2.4336  -42.8269 C   0  0  0  0  0  0  0  0  0  0  0  0
  -34.5715    4.5085  -44.6563 X   0  0  0  0  0  0  0  0  0  0  0  0
  1  2  1  0  0  0  0
  1  6  1  0  0  0  0
  1  9  1  0  0  0  0
  2  3  1  0  0  0  0
  3  4  1  0  0  0  0
  3  8  1  0  0  0  0
  4  5  1  0  0  0  0
  5  6  1  0  0  0  0
  6  7  1  0  0  0  0
  7  8  1  0  0  0  0
M  END
> <Index>
18184

> <PropertyFieldDistance>
nan

$$$$
13022936
BBcorina  12272117083D 1   1.00000     0.00000 
CORINA 4.3.0 0026  30.10.2019
 16 17  0  0  0  0  0  0  0  0999 V2000
  -34.2272   -0.7208  -45.4402 C   0  0  0  0  0  0  0  0  0  0  0  0
  -35.4090    0.1438  -45.0839 C   0  0  0  0  0  0  0  0  0  0  0  0
  -36.6589   -0.4008  -45.0272 C   0  0  0  0  0  0  0  0  0  0  0  0
  -37.7459    0.4264  -44.6930 C   0  0  0  0  0  0  0  0  0  0  0  0
  -38.8777   -0.0260  -44.6381 O   0  0  0  0  0  0  0  0  0  0  0  0
  -37.5139    1.7321  -44.4396 N   0  0  0  0  0  0  0  0  0  0  0  0
  -36.2456    2.2192  -44.5114 C   0  0  0  0  0  0  0  0  0  0  0  0
  -35.2318    1.4374  -44.8254 N   0  0  0  0  0  0  0  0  0  0  0  0
  -36.0185    3.5443  -44.2531 N   0  0  0  0  0  0  0  0  0  0  0  0
  -37.1077    4.4139  -43.7882 C   0  0  0  0  0  0  0  0  0  0  0  0
  -36.6590    5.1096  -42.4941 C   0  0  0  0  0  0  0  0  0  0  0  0
  -35.3370    5.8386  -42.7456 C   0  0  0  0  0  0  0  0  0  0  0  0
  -34.2618    4.8255  -43.1452 C   0  0  0  0  0  0  0  0  0  0  0  0
  -34.6821    4.1252  -44.4412 C   0  0  0  0  0  0  0  0  0  0  0  0
  -32.9854    5.5214  -43.3556 N   0  0  0  0  0  0  0  0  0  0  0  0
  -33.1507    6.7678  -44.5145 X   0  0  0  0  0  0  0  0  0  0  0  0
  1  2  1  0  0  0  0
  2  3  2  0  0  0  0
  2  8  1  0  0  0  0
  3  4  1  0  0  0  0
  4  5  2  0  0  0  0
  4  6  1  0  0  0  0
  6  7  1  0  0  0  0
  7  8  2  0  0  0  0
  7  9  1  0  0  0  0
  9 10  1  0  0  0  0
  9 14  1  0  0  0  0
 10 11  1  0  0  0  0
 11 12  1  0  0  0  0
 12 13  1  0  0  0  0
 13 14  1  0  0  0  0
 13 15  1  0  0  0  0
 15 16  1  0  0  0  0
M  END
> <Index>
18186

> <PropertyFieldDistance>
nan

$$$$
13035184
BBcorina  12272117083D 1   1.00000     0.00000 
CORINA 4.3.0 0026  30.10.2019
 11 11  0  0  0  0  0  0  0  0999 V2000
  -35.1142    4.0225  -41.2424 O   0  0  0  0  0  0  0  0  0  0  0  0
  -35.2462    5.1676  -42.0870 C   0  0  0  0  0  0  0  0  0  0  0  0
  -34.9268    6.4324  -41.2874 C   0  0  0  0  0  0  0  0  0  0  0  0
  -33.4798    6.4090  -40.8673 C   0  0  0  0  0  0  0  0  0  0  0  0
  -32.6925    7.4102  -41.1736 C   0  0  0  0  0  0  0  0  0  0  0  0
  -36.6793    5.2475  -42.6202 C   0  0  0  0  0  0  0  0  0  0  0  0
  -36.9723    4.0087  -43.4695 C   0  0  0  0  0  0  0  0  0  0  0  0
  -36.0192    3.9414  -44.5845 N   0  0  0  0  0  0  0  0  0  0  0  0
  -34.6396    3.8164  -44.0970 C   0  0  0  0  0  0  0  0  0  0  0  0
  -34.2770    5.0496  -43.2665 C   0  0  0  0  0  0  0  0  0  0  0  0
  -36.4111    2.6621  -45.6494 X   0  0  0  0  0  0  0  0  0  0  0  0
  1  2  1  0  0  0  0
  2  3  1  0  0  0  0
  2  6  1  0  0  0  0
  2 10  1  0  0  0  0
  3  4  1  0  0  0  0
  4  5  2  0  0  0  0
  6  7  1  0  0  0  0
  7  8  1  0  0  0  0
  8  9  1  0  0  0  0
  8 11  1  0  0  0  0
  9 10  1  0  0  0  0
M  END
> <Index>
18192

> <PropertyFieldDistance>
nan

$$$$
13035116
BBcorina  12272117083D 1   1.00000     0.00000 
CORINA 4.3.0 0026  30.10.2019
 13 13  0  0  0  0  0  0  0  0999 V2000
  -30.8787    7.4567  -40.9501 O   0  0  0  0  0  0  0  0  0  0  0  0
  -31.6718    7.4228  -39.7619 C   0  0  0  0  0  0  0  0  0  0  0  0
  -33.1507    7.5530  -40.1320 C   0  0  0  0  0  0  0  0  0  0  0  0
  -33.5546    6.4102  -40.8890 O   0  0  0  0  0  0  0  0  0  0  0  0
  -34.9268    6.4324  -41.2874 C   0  0  0  0  0  0  0  0  0  0  0  0
  -35.2462    5.1676  -42.0870 C   0  0  0  0  0  0  0  0  0  0  0  0
  -35.1141    4.0225  -41.2424 O   0  0  0  0  0  0  0  0  0  0  0  0
  -36.6793    5.2476  -42.6202 C   0  0  0  0  0  0  0  0  0  0  0  0
  -36.9723    4.0087  -43.4695 C   0  0  0  0  0  0  0  0  0  0  0  0
  -36.0192    3.9414  -44.5846 N   0  0  0  0  0  0  0  0  0  0  0  0
  -34.6396    3.8164  -44.0970 C   0  0  0  0  0  0  0  0  0  0  0  0
  -34.2769    5.0496  -43.2665 C   0  0  0  0  0  0  0  0  0  0  0  0
  -36.4110    2.6621  -45.6493 X   0  0  0  0  0  0  0  0  0  0  0  0
  1  2  1  0  0  0  0
  2  3  1  0  0  0  0
  3  4  1  0  0  0  0
  4  5  1  0  0  0  0
  5  6  1  0  0  0  0
  6  7  1  0  0  0  0
  6  8  1  0  0  0  0
  6 12  1  0  0  0  0
  8  9  1  0  0  0  0
  9 10  1  0  0  0  0
 10 11  1  0  0  0  0
 10 13  1  0  0  0  0
 11 12  1  0  0  0  0
M  END
> <Index>
18195

> <PropertyFieldDistance>
nan

$$$$
13214712
BBcorina  12272117083D 1   1.00000     0.00000 
CORINA 4.3.0 0026  30.10.2019
 12 13  0  0  0  0  0  0  0  0999 V2000
  -36.0172    3.5927  -44.4913 N   0  0  0  0  0  0  0  0  0  0  0  0
  -36.3934    2.1751  -44.5752 C   0  0  0  0  0  0  0  0  0  0  0  0
  -36.1059    1.6538  -45.9847 C   0  0  0  0  0  0  0  0  0  0  0  0
  -36.6118    0.2148  -46.1095 C   0  0  0  0  0  0  0  0  0  0  0  0
  -36.3081   -0.3113  -47.5154 C   0  0  0  0  0  0  0  0  0  0  0  0
  -34.7958   -0.2409  -47.7580 C   0  0  0  0  0  0  0  0  0  0  0  0
  -34.3203    1.1900  -47.5095 C   0  0  0  0  0  0  0  0  0  0  0  0
  -32.8391    1.4084  -47.8430 C   0  0  0  0  0  0  0  0  0  0  0  0
  -33.2955    1.7543  -49.2710 C   0  0  0  0  0  0  0  0  0  0  0  0
  -34.6514    2.1504  -48.6616 C   0  0  0  0  0  0  0  0  0  0  0  0
  -34.6965    1.6857  -46.2267 O   0  0  0  0  0  0  0  0  0  0  0  0
  -36.3229    4.2163  -42.9287 X   0  0  0  0  0  0  0  0  0  0  0  0
  1  2  1  0  0  0  0
  1 12  1  0  0  0  0
  2  3  1  0  0  0  0
  3  4  1  0  0  0  0
  3 11  1  0  0  0  0
  4  5  1  0  0  0  0
  5  6  1  0  0  0  0
  6  7  1  0  0  0  0
  7  8  1  0  0  0  0
  7 10  1  0  0  0  0
  7 11  1  0  0  0  0
  8  9  1  0  0  0  0
  9 10  1  0  0  0  0
M  END
> <Index>
18201

> <PropertyFieldDistance>
nan

$$$$
13443394
BBcorina  12272117083D 1   1.00000     0.00000 
CORINA 4.3.0 0026  30.10.2019
 12 13  0  0  0  0  0  0  0  0999 V2000
  -35.6564    3.0748  -47.6346 N   0  0  0  0  0  0  0  0  0  0  0  0
  -35.9875    2.1927  -46.5076 C   0  0  0  0  0  0  0  0  0  0  0  0
  -36.6411    2.9982  -45.4144 C   0  0  0  0  0  0  0  0  0  0  0  0
  -37.9662    3.1583  -45.2131 C   0  0  0  0  0  0  0  0  0  0  0  0
  -38.1328    3.9467  -44.1376 N   0  0  0  0  0  0  0  0  0  0  0  0
  -36.9695    4.2786  -43.6676 C   0  0  0  0  0  0  0  0  0  0  0  0
  -36.6512    5.1462  -42.4729 C   0  0  0  0  0  0  0  0  0  0  0  0
  -35.2694    4.9466  -42.1429 O   0  0  0  0  0  0  0  0  0  0  0  0
  -34.3807    5.0642  -43.2575 C   0  0  0  0  0  0  0  0  0  0  0  0
  -34.5747    3.8688  -44.2003 C   0  0  0  0  0  0  0  0  0  0  0  0
  -36.0112    3.7058  -44.4394 N   0  0  0  0  0  0  0  0  0  0  0  0
  -34.9109    2.1987  -48.8999 X   0  0  0  0  0  0  0  0  0  0  0  0
  1  2  1  0  0  0  0
  1 12  1  0  0  0  0
  2  3  1  0  0  0  0
  3  4  2  0  0  0  0
  3 11  1  0  0  0  0
  4  5  1  0  0  0  0
  5  6  2  0  0  0  0
  6  7  1  0  0  0  0
  6 11  1  0  0  0  0
  7  8  1  0  0  0  0
  8  9  1  0  0  0  0
  9 10  1  0  0  0  0
 10 11  1  0  0  0  0
M  END
> <Index>
18213

> <PropertyFieldDistance>
nan

$$$$
12711016
BBcorina  12272117083D 1   1.00000     0.00000 
CORINA 4.3.0 0026  30.10.2019
 13 14  0  0  0  0  0  0  0  0999 V2000
  -36.3630    2.3568  -44.9062 C   0  0  0  0  0  0  0  0  0  0  0  0
  -35.9420    3.3416  -43.9007 N   0  0  0  0  0  0  0  0  0  0  0  0
  -36.9724    4.3720  -43.7090 C   0  0  0  0  0  0  0  0  0  0  0  0
  -36.6862    5.1582  -42.4235 C   0  0  0  0  0  0  0  0  0  0  0  0
  -35.2824    5.5814  -42.4474 N   0  0  0  0  0  0  0  0  0  0  0  0
  -34.6597    6.5610  -41.6757 N   0  0  0  0  0  0  0  0  0  0  0  0
  -33.3976    6.6144  -42.0271 C   0  0  0  0  0  0  0  0  0  0  0  0
  -33.1817    5.6653  -43.0353 C   0  0  0  0  0  0  0  0  0  0  0  0
  -31.8726    5.3888  -43.7288 C   0  0  0  0  0  0  0  0  0  0  0  0
  -31.8570    6.0646  -45.0329 N   0  0  0  0  0  0  0  0  0  0  0  0
  -34.3516    5.0451  -43.2735 C   0  0  0  0  0  0  0  0  0  0  0  0
  -34.6474    3.9454  -44.2625 C   0  0  0  0  0  0  0  0  0  0  0  0
  -30.3856    5.7762  -45.8551 X   0  0  0  0  0  0  0  0  0  0  0  0
  1  2  1  0  0  0  0
  2  3  1  0  0  0  0
  2 12  1  0  0  0  0
  3  4  1  0  0  0  0
  4  5  1  0  0  0  0
  5  6  1  0  0  0  0
  5 11  1  0  0  0  0
  6  7  2  0  0  0  0
  7  8  1  0  0  0  0
  8  9  1  0  0  0  0
  8 11  2  0  0  0  0
  9 10  1  0  0  0  0
 10 13  1  0  0  0  0
 11 12  1  0  0  0  0
M  END
> <Index>
18225

> <PropertyFieldDistance>
nan

$$$$
12528714
BBcorina  12272117083D 1   1.00000     0.00000 
CORINA 4.3.0 0026  30.10.2019
 12 13  0  0  0  0  0  0  0  0999 V2000
  -35.8572    3.5528  -44.1681 N   0  0  0  0  0  0  0  0  0  0  0  0
  -37.1122    4.1346  -43.6433 C   0  0  0  0  0  0  0  0  0  0  0  0
  -36.8812    5.2352  -42.5925 C   0  0  0  0  0  0  0  0  0  0  0  0
  -35.7936    4.8898  -41.6106 C   0  0  0  0  0  0  0  0  0  0  0  0
  -34.4504    5.4418  -42.1385 C   0  0  0  0  0  0  0  0  0  0  0  0
  -33.9053    4.6063  -43.2028 C   0  0  0  0  0  0  0  0  0  0  0  0
  -34.8315    4.5346  -44.4310 C   0  0  0  0  0  0  0  0  0  0  0  0
  -33.4467    5.4991  -40.9853 C   0  0  0  0  0  0  0  0  0  0  0  0
  -32.0824    6.0859  -41.3845 C   0  0  0  0  0  0  0  0  0  0  0  0
  -32.0863    6.8121  -40.0290 C   0  0  0  0  0  0  0  0  0  0  0  0
  -33.6210    6.7278  -40.0771 C   0  0  0  0  0  0  0  0  0  0  0  0
  -36.1578    2.5931  -45.5511 X   0  0  0  0  0  0  0  0  0  0  0  0
  1  2  1  0  0  0  0
  1  7  1  0  0  0  0
  1 12  1  0  0  0  0
  2  3  1  0  0  0  0
  3  4  1  0  0  0  0
  4  5  1  0  0  0  0
  5  6  1  0  0  0  0
  5  8  1  0  0  0  0
  6  7  1  0  0  0  0
  8  9  1  0  0  0  0
  8 11  1  0  0  0  0
  9 10  1  0  0  0  0
 10 11  1  0  0  0  0
M  END
> <Index>
18233

> <PropertyFieldDistance>
nan

$$$$
16792674
BBcorina  12272117083D 1   1.00000     0.00000 
CORINA 4.3.0 0026  30.10.2019
 10 11  0  0  0  0  0  0  0  0999 V2000
  -37.6298    5.3498  -41.5584 O   0  0  0  0  0  0  0  0  0  0  0  0
  -36.6967    5.2753  -42.6381 C   0  0  0  0  0  0  0  0  0  0  0  0
  -36.9444    3.9965  -43.4405 C   0  0  0  0  0  0  0  0  0  0  0  0
  -36.0235    3.9370  -44.5819 N   0  0  0  0  0  0  0  0  0  0  0  0
  -34.6269    3.8273  -44.1345 C   0  0  0  0  0  0  0  0  0  0  0  0
  -34.2958    5.0275  -43.2428 C   0  0  0  0  0  0  0  0  0  0  0  0
  -33.6820    6.2597  -43.9054 C   0  0  0  0  0  0  0  0  0  0  0  0
  -32.8228    5.3610  -43.0132 C   0  0  0  0  0  0  0  0  0  0  0  0
  -35.2686    5.2534  -42.0804 C   0  0  0  0  0  0  0  0  0  0  0  0
  -36.4329    2.6521  -45.6332 X   0  0  0  0  0  0  0  0  0  0  0  0
  1  2  1  0  0  0  0
  2  3  1  0  0  0  0
  2  9  1  0  0  0  0
  3  4  1  0  0  0  0
  4  5  1  0  0  0  0
  4 10  1  0  0  0  0
  5  6  1  0  0  0  0
  6  7  1  0  0  0  0
  6  8  1  0  0  0  0
  6  9  1  0  0  0  0
  7  8  1  0  0  0  0
M  END
> <Index>
18235

> <PropertyFieldDistance>
nan

$$$$
14040596
BBcorina  12272117083D 1   1.00000     0.00000 
CORINA 4.3.0 0026  30.10.2019
 11 12  0  0  0  0  0  0  0  0999 V2000
  -37.6134    5.3306  -41.5430 O   0  0  0  0  0  0  0  0  0  0  0  0
  -36.6894    5.2648  -42.6311 C   0  0  0  0  0  0  0  0  0  0  0  0
  -36.9553    4.0009  -43.4519 C   0  0  0  0  0  0  0  0  0  0  0  0
  -36.0219    3.9385  -44.5833 N   0  0  0  0  0  0  0  0  0  0  0  0
  -34.6318    3.8248  -44.1191 C   0  0  0  0  0  0  0  0  0  0  0  0
  -34.2889    5.0346  -43.2523 C   0  0  0  0  0  0  0  0  0  0  0  0
  -34.0480    6.3177  -44.0573 C   0  0  0  0  0  0  0  0  0  0  0  0
  -32.8928    6.6130  -43.0850 C   0  0  0  0  0  0  0  0  0  0  0  0
  -32.8133    5.0963  -42.8397 C   0  0  0  0  0  0  0  0  0  0  0  0
  -35.2578    5.2194  -42.0852 C   0  0  0  0  0  0  0  0  0  0  0  0
  -36.4227    2.6536  -45.6381 X   0  0  0  0  0  0  0  0  0  0  0  0
  1  2  1  0  0  0  0
  2  3  1  0  0  0  0
  2 10  1  0  0  0  0
  3  4  1  0  0  0  0
  4  5  1  0  0  0  0
  4 11  1  0  0  0  0
  5  6  1  0  0  0  0
  6  7  1  0  0  0  0
  6  9  1  0  0  0  0
  6 10  1  0  0  0  0
  7  8  1  0  0  0  0
  8  9  1  0  0  0  0
M  END
> <Index>
18237

> <PropertyFieldDistance>
nan

$$$$
13153950
BBcorina  12272117083D 1   1.00000     0.00000 
CORINA 4.3.0 0026  30.10.2019
 12 13  0  0  0  0  0  0  0  0999 V2000
  -37.6407    7.6921  -45.0681 N   0  0  0  0  0  0  0  0  0  0  0  0
  -37.2636    6.6993  -44.0532 C   0  0  0  0  0  0  0  0  0  0  0  0
  -38.4571    5.7901  -43.7734 C   0  0  0  0  0  0  0  0  0  0  0  0
  -38.0227    4.7527  -42.7299 C   0  0  0  0  0  0  0  0  0  0  0  0
  -36.8720    3.9448  -43.3205 C   0  0  0  0  0  0  0  0  0  0  0  0
  -35.7202    4.8080  -43.6389 N   0  0  0  0  0  0  0  0  0  0  0  0
  -34.6637    3.9264  -44.1683 C   0  0  0  0  0  0  0  0  0  0  0  0
  -33.3087    4.6316  -44.1801 C   0  0  0  0  0  0  0  0  0  0  0  0
  -33.4305    6.0434  -45.3231 S   0  0  0  0  0  0  0  0  0  0  0  0
  -34.9023    6.8918  -44.6832 C   0  0  0  0  0  0  0  0  0  0  0  0
  -36.0641    5.8902  -44.5613 C   0  0  0  0  0  0  0  0  0  0  0  0
  -38.0041    6.9369  -46.5587 X   0  0  0  0  0  0  0  0  0  0  0  0
  1  2  1  0  0  0  0
  1 12  1  0  0  0  0
  2  3  1  0  0  0  0
  2 11  1  0  0  0  0
  3  4  1  0  0  0  0
  4  5  1  0  0  0  0
  5  6  1  0  0  0  0
  6  7  1  0  0  0  0
  6 11  1  0  0  0  0
  7  8  1  0  0  0  0
  8  9  1  0  0  0  0
  9 10  1  0  0  0  0
 10 11  1  0  0  0  0
M  END
> <Index>
18246

> <PropertyFieldDistance>
nan

$$$$
13467834
BBcorina  12272117083D 1   1.00000     0.00000 
CORINA 4.3.0 0026  30.10.2019
  9 10  0  0  0  0  0  0  0  0999 V2000
  -36.0173    3.5927  -44.4913 N   0  0  0  0  0  0  0  0  0  0  0  0
  -36.3933    2.1751  -44.5752 C   0  0  0  0  0  0  0  0  0  0  0  0
  -36.1059    1.6538  -45.9847 C   0  0  0  0  0  0  0  0  0  0  0  0
  -34.5815    1.6446  -46.2590 C   0  0  0  0  0  0  0  0  0  0  0  0
  -34.4419    0.5824  -47.3775 C   0  0  0  0  0  0  0  0  0  0  0  0
  -35.4633   -0.5080  -46.9934 C   0  0  0  0  0  0  0  0  0  0  0  0
  -36.9023   -0.3581  -47.4911 C   0  0  0  0  0  0  0  0  0  0  0  0
  -36.5255    0.1540  -46.0994 C   0  0  0  0  0  0  0  0  0  0  0  0
  -36.3229    4.2163  -42.9287 X   0  0  0  0  0  0  0  0  0  0  0  0
  1  2  1  0  0  0  0
  1  9  1  0  0  0  0
  2  3  1  0  0  0  0
  3  4  1  0  0  0  0
  3  8  1  0  0  0  0
  4  5  1  0  0  0  0
  5  6  1  0  0  0  0
  6  7  1  0  0  0  0
  6  8  1  0  0  0  0
  7  8  1  0  0  0  0
M  END
> <Index>
18248

> <PropertyFieldDistance>
nan

$$$$
14265404
BBcorina  12272117083D 1   1.00000     0.00000 
CORINA 4.3.0 0026  30.10.2019
 12 13  0  0  0  0  0  0  0  0999 V2000
  -37.1745    2.9232  -42.4709 C   0  0  0  0  0  0  0  0  0  0  0  0
  -37.0421    4.0913  -43.4502 C   0  0  0  0  0  0  0  0  0  0  0  0
  -38.3066    4.2856  -44.3008 C   0  0  0  0  0  0  0  0  0  0  0  0
  -37.8770    3.9442  -45.6527 O   0  0  0  0  0  0  0  0  0  0  0  0
  -36.5666    3.6610  -45.6473 C   0  0  0  0  0  0  0  0  0  0  0  0
  -35.9634    3.2775  -46.6299 O   0  0  0  0  0  0  0  0  0  0  0  0
  -35.9900    3.8401  -44.4596 N   0  0  0  0  0  0  0  0  0  0  0  0
  -34.5595    3.8708  -44.1229 C   0  0  0  0  0  0  0  0  0  0  0  0
  -34.3127    5.1641  -43.3302 C   0  0  0  0  0  0  0  0  0  0  0  0
  -35.2857    5.2712  -42.2373 N   0  0  0  0  0  0  0  0  0  0  0  0
  -36.6676    5.3889  -42.7274 C   0  0  0  0  0  0  0  0  0  0  0  0
  -34.8937    6.5668  -41.1924 X   0  0  0  0  0  0  0  0  0  0  0  0
  1  2  1  0  0  0  0
  2  3  1  0  0  0  0
  2  7  1  0  0  0  0
  2 11  1  0  0  0  0
  3  4  1  0  0  0  0
  4  5  1  0  0  0  0
  5  6  2  0  0  0  0
  5  7  1  0  0  0  0
  7  8  1  0  0  0  0
  8  9  1  0  0  0  0
  9 10  1  0  0  0  0
 10 11  1  0  0  0  0
 10 12  1  0  0  0  0
M  END
> <Index>
18250

> <PropertyFieldDistance>
nan

$$$$
13142172
BBcorina  12272117083D 1   1.00000     0.00000 
CORINA 4.3.0 0026  30.10.2019
 12 12  0  0  0  0  0  0  0  0999 V2000
  -35.4426    7.5244  -37.7870 C   0  0  0  0  0  0  0  0  0  0  0  0
  -34.9598    7.6978  -39.2285 C   0  0  0  0  0  0  0  0  0  0  0  0
  -35.2754    6.4530  -40.0172 C   0  0  0  0  0  0  0  0  0  0  0  0
  -35.8316    5.5191  -39.4793 O   0  0  0  0  0  0  0  0  0  0  0  0
  -34.9395    6.3776  -41.3202 N   0  0  0  0  0  0  0  0  0  0  0  0
  -35.2462    5.1675  -42.0868 C   0  0  0  0  0  0  0  0  0  0  0  0
  -36.6793    5.2476  -42.6203 C   0  0  0  0  0  0  0  0  0  0  0  0
  -36.9723    4.0086  -43.4694 C   0  0  0  0  0  0  0  0  0  0  0  0
  -36.0191    3.9414  -44.5845 N   0  0  0  0  0  0  0  0  0  0  0  0
  -34.6396    3.8164  -44.0971 C   0  0  0  0  0  0  0  0  0  0  0  0
  -34.2769    5.0496  -43.2664 C   0  0  0  0  0  0  0  0  0  0  0  0
  -36.4111    2.6624  -45.6495 X   0  0  0  0  0  0  0  0  0  0  0  0
  1  2  1  0  0  0  0
  2  3  1  0  0  0  0
  3  4  2  0  0  0  0
  3  5  1  0  0  0  0
  5  6  1  0  0  0  0
  6  7  1  0  0  0  0
  6 11  1  0  0  0  0
  7  8  1  0  0  0  0
  8  9  1  0  0  0  0
  9 10  1  0  0  0  0
  9 12  1  0  0  0  0
 10 11  1  0  0  0  0
M  END
> <Index>
18252

> <PropertyFieldDistance>
nan

$$$$
2166664
BBcorina  12272117083D 1   1.00000     0.00000 
CORINA 4.3.0 0026  30.10.2019
 14 15  0  0  0  0  0  0  0  0999 V2000
  -35.2513    5.7191  -42.6821 N   0  0  0  0  0  0  0  0  0  0  0  0
  -36.5101    5.0624  -42.3029 C   0  0  0  0  0  0  0  0  0  0  0  0
  -37.0906    4.3371  -43.5192 C   0  0  0  0  0  0  0  0  0  0  0  0
  -36.1150    3.3547  -44.0120 N   0  0  0  0  0  0  0  0  0  0  0  0
  -36.6655    2.5836  -45.1346 C   0  0  0  0  0  0  0  0  0  0  0  0
  -35.5913    1.6414  -45.6818 C   0  0  0  0  0  0  0  0  0  0  0  0
  -35.1830    0.6469  -44.5932 C   0  0  0  0  0  0  0  0  0  0  0  0
  -34.1088   -0.2954  -45.1402 C   0  0  0  0  0  0  0  0  0  0  0  0
  -34.6643   -1.0575  -46.3450 C   0  0  0  0  0  0  0  0  0  0  0  0
  -35.0726   -0.0628  -47.4335 C   0  0  0  0  0  0  0  0  0  0  0  0
  -36.1469    0.8794  -46.8865 C   0  0  0  0  0  0  0  0  0  0  0  0
  -34.8562    4.0115  -44.3913 C   0  0  0  0  0  0  0  0  0  0  0  0
  -34.2757    4.7368  -43.1750 C   0  0  0  0  0  0  0  0  0  0  0  0
  -34.6105    6.6167  -41.3753 X   0  0  0  0  0  0  0  0  0  0  0  0
  1  2  1  0  0  0  0
  1 13  1  0  0  0  0
  1 14  1  0  0  0  0
  2  3  1  0  0  0  0
  3  4  1  0  0  0  0
  4  5  1  0  0  0  0
  4 12  1  0  0  0  0
  5  6  1  0  0  0  0
  6  7  1  0  0  0  0
  6 11  1  0  0  0  0
  7  8  1  0  0  0  0
  8  9  1  0  0  0  0
  9 10  1  0  0  0  0
 10 11  1  0  0  0  0
 12 13  1  0  0  0  0
M  END
> <Index>
18259

> <PropertyFieldDistance>
nan

$$$$
10741216
BBcorina  12272117083D 1   1.00000     0.00000 
CORINA 4.3.0 0026  30.10.2019
 10 10  0  0  0  0  0  0  0  0999 V2000
  -36.0173    3.5927  -44.4913 N   0  0  0  0  0  0  0  0  0  0  0  0
  -36.3933    2.1751  -44.5752 C   0  0  0  0  0  0  0  0  0  0  0  0
  -36.1059    1.6538  -45.9847 C   0  0  0  0  0  0  0  0  0  0  0  0
  -36.3383    0.2174  -46.0125 C   0  0  0  0  0  0  0  0  0  0  0  0
  -36.0077   -0.4054  -47.3843 C   0  0  0  0  0  0  0  0  0  0  0  0
  -37.1630   -0.1528  -48.3147 C   0  0  0  0  0  0  0  0  0  0  0  0
  -36.9684    1.1174  -49.1649 C   0  0  0  0  0  0  0  0  0  0  0  0
  -36.3834    2.2923  -48.3582 C   0  0  0  0  0  0  0  0  0  0  0  0
  -36.9983    2.4113  -46.9892 C   0  0  0  0  0  0  0  0  0  0  0  0
  -36.3230    4.2163  -42.9287 X   0  0  0  0  0  0  0  0  0  0  0  0
  1  2  1  0  0  0  0
  1 10  1  0  0  0  0
  2  3  1  0  0  0  0
  3  4  1  0  0  0  0
  3  9  1  0  0  0  0
  4  5  1  0  0  0  0
  5  6  1  0  0  0  0
  6  7  1  0  0  0  0
  7  8  1  0  0  0  0
  8  9  1  0  0  0  0
M  END
> <Index>
18266

> <PropertyFieldDistance>
nan

$$$$
546960
BBcorina  12272117083D 1   1.00000     0.00000 
CORINA 4.3.0 0026  30.10.2019
 10 10  0  0  0  0  0  0  0  0999 V2000
  -35.5861    1.6524  -45.6893 C   0  0  0  0  0  0  0  0  0  0  0  0
  -36.6679    2.5768  -45.1269 C   0  0  0  0  0  0  0  0  0  0  0  0
  -37.8491    1.7386  -44.6339 C   0  0  0  0  0  0  0  0  0  0  0  0
  -36.1164    3.3517  -44.0074 N   0  0  0  0  0  0  0  0  0  0  0  0
  -37.0912    4.3363  -43.5176 C   0  0  0  0  0  0  0  0  0  0  0  0
  -36.5097    5.0658  -42.3043 C   0  0  0  0  0  0  0  0  0  0  0  0
  -35.2509    5.7207  -42.6868 N   0  0  0  0  0  0  0  0  0  0  0  0
  -34.2760    4.7362  -43.1766 C   0  0  0  0  0  0  0  0  0  0  0  0
  -34.8575    4.0065  -44.3899 C   0  0  0  0  0  0  0  0  0  0  0  0
  -34.6088    6.6228  -41.3836 X   0  0  0  0  0  0  0  0  0  0  0  0
  1  2  1  0  0  0  0
  2  3  1  0  0  0  0
  2  4  1  0  0  0  0
  4  5  1  0  0  0  0
  4  9  1  0  0  0  0
  5  6  1  0  0  0  0
  6  7  1  0  0  0  0
  7  8  1  0  0  0  0
  7 10  1  0  0  0  0
  8  9  1  0  0  0  0
M  END
> <Index>
18267

> <PropertyFieldDistance>
nan

$$$$
7533644
BBcorina  12272117083D 1   1.00000     0.00000 
CORINA 4.3.0 0026  30.10.2019
  9  9  0  0  0  0  0  0  0  0999 V2000
  -35.9144    7.5513  -41.0515 O   0  0  0  0  0  0  0  0  0  0  0  0
  -34.9460    6.5589  -41.3971 C   0  0  0  0  0  0  0  0  0  0  0  0
  -35.3535    5.8833  -42.7079 C   0  0  0  0  0  0  0  0  0  0  0  0
  -36.6585    5.1099  -42.5008 C   0  0  0  0  0  0  0  0  0  0  0  0
  -37.0291    4.3869  -43.7977 C   0  0  0  0  0  0  0  0  0  0  0  0
  -35.9480    3.4664  -44.1723 N   0  0  0  0  0  0  0  0  0  0  0  0
  -34.6958    4.1916  -44.4226 C   0  0  0  0  0  0  0  0  0  0  0  0
  -34.2559    4.9088  -43.1442 C   0  0  0  0  0  0  0  0  0  0  0  0
  -36.3899    2.5211  -45.5270 X   0  0  0  0  0  0  0  0  0  0  0  0
  1  2  1  0  0  0  0
  2  3  1  0  0  0  0
  3  4  1  0  0  0  0
  3  8  1  0  0  0  0
  4  5  1  0  0  0  0
  5  6  1  0  0  0  0
  6  7  1  0  0  0  0
  6  9  1  0  0  0  0
  7  8  1  0  0  0  0
M  END
> <Index>
18271

> <PropertyFieldDistance>
nan

$$$$
13432342
BBcorina  12272117083D 1   1.00000     0.00000 
CORINA 4.3.0 0026  30.10.2019
 12 13  0  0  0  0  0  0  0  0999 V2000
  -36.0194    3.9412  -44.5845 N   0  0  0  0  0  0  0  0  0  0  0  0
  -36.9723    4.0084  -43.4693 C   0  0  0  0  0  0  0  0  0  0  0  0
  -36.6796    5.2477  -42.6204 C   0  0  0  0  0  0  0  0  0  0  0  0
  -35.2463    5.1684  -42.0875 C   0  0  0  0  0  0  0  0  0  0  0  0
  -34.2763    5.0495  -43.2663 C   0  0  0  0  0  0  0  0  0  0  0  0
  -34.6397    3.8168  -44.0972 C   0  0  0  0  0  0  0  0  0  0  0  0
  -34.9400    6.3830  -41.3202 N   0  0  0  0  0  0  0  0  0  0  0  0
  -33.8792    6.1303  -40.3359 C   0  0  0  0  0  0  0  0  0  0  0  0
  -33.1168    7.3971  -39.9129 C   0  0  0  0  0  0  0  0  0  0  0  0
  -33.1295    6.8321  -38.4826 C   0  0  0  0  0  0  0  0  0  0  0  0
  -34.3899    6.0461  -38.8877 C   0  0  0  0  0  0  0  0  0  0  0  0
  -36.4110    2.6614  -45.6489 X   0  0  0  0  0  0  0  0  0  0  0  0
  1  2  1  0  0  0  0
  1  6  1  0  0  0  0
  1 12  1  0  0  0  0
  2  3  1  0  0  0  0
  3  4  1  0  0  0  0
  4  5  1  0  0  0  0
  4  7  1  0  0  0  0
  5  6  1  0  0  0  0
  7  8  1  0  0  0  0
  8  9  1  0  0  0  0
  8 11  1  0  0  0  0
  9 10  1  0  0  0  0
 10 11  1  0  0  0  0
M  END
> <Index>
18275

> <PropertyFieldDistance>
nan

$$$$
13225616
BBcorina  12272117083D 1   1.00000     0.00000 
CORINA 4.3.0 0026  30.10.2019
 12 13  0  0  0  0  0  0  0  0999 V2000
  -35.1137    4.0217  -41.2436 O   0  0  0  0  0  0  0  0  0  0  0  0
  -35.2462    5.1676  -42.0870 C   0  0  0  0  0  0  0  0  0  0  0  0
  -36.6793    5.2476  -42.6202 C   0  0  0  0  0  0  0  0  0  0  0  0
  -36.9723    4.0087  -43.4695 C   0  0  0  0  0  0  0  0  0  0  0  0
  -36.0191    3.9414  -44.5845 N   0  0  0  0  0  0  0  0  0  0  0  0
  -34.6396    3.8164  -44.0970 C   0  0  0  0  0  0  0  0  0  0  0  0
  -34.2770    5.0496  -43.2665 C   0  0  0  0  0  0  0  0  0  0  0  0
  -34.9267    6.4323  -41.2873 C   0  0  0  0  0  0  0  0  0  0  0  0
  -35.7658    6.5798  -40.0070 C   0  0  0  0  0  0  0  0  0  0  0  0
  -34.4868    7.0893  -39.3218 C   0  0  0  0  0  0  0  0  0  0  0  0
  -33.6976    6.2898  -40.3743 C   0  0  0  0  0  0  0  0  0  0  0  0
  -36.4111    2.6622  -45.6494 X   0  0  0  0  0  0  0  0  0  0  0  0
  1  2  1  0  0  0  0
  2  3  1  0  0  0  0
  2  7  1  0  0  0  0
  2  8  1  0  0  0  0
  3  4  1  0  0  0  0
  4  5  1  0  0  0  0
  5  6  1  0  0  0  0
  5 12  1  0  0  0  0
  6  7  1  0  0  0  0
  8  9  1  0  0  0  0
  8 11  1  0  0  0  0
  9 10  1  0  0  0  0
 10 11  1  0  0  0  0
M  END
> <Index>
18278

> <PropertyFieldDistance>
nan

$$$$
15345408
BBcorina  12272117083D 1   1.00000     0.00000 
CORINA 4.3.0 0026  30.10.2019
 12 14  0  0  0  0  0  0  0  0999 V2000
  -35.9750    3.4487  -44.1303 N   0  0  0  0  0  0  0  0  0  0  0  0
  -36.9667    4.4994  -43.8531 C   0  0  0  0  0  0  0  0  0  0  0  0
  -36.6743    5.0387  -42.4510 C   0  0  0  0  0  0  0  0  0  0  0  0
  -35.2966    5.5028  -42.2885 N   0  0  0  0  0  0  0  0  0  0  0  0
  -35.2610    6.9649  -42.3470 C   0  0  0  0  0  0  0  0  0  0  0  0
  -35.8225    7.3064  -43.7294 C   0  0  0  0  0  0  0  0  0  0  0  0
  -34.7116    6.8998  -44.6995 C   0  0  0  0  0  0  0  0  0  0  0  0
  -33.6238    6.3161  -43.7929 C   0  0  0  0  0  0  0  0  0  0  0  0
  -33.7695    7.2163  -42.5693 C   0  0  0  0  0  0  0  0  0  0  0  0
  -34.2654    5.0377  -43.2299 C   0  0  0  0  0  0  0  0  0  0  0  0
  -34.6797    4.0992  -44.3746 C   0  0  0  0  0  0  0  0  0  0  0  0
  -36.4468    2.4993  -45.4720 X   0  0  0  0  0  0  0  0  0  0  0  0
  1  2  1  0  0  0  0
  1 11  1  0  0  0  0
  1 12  1  0  0  0  0
  2  3  1  0  0  0  0
  3  4  1  0  0  0  0
  4  5  1  0  0  0  0
  4 10  1  0  0  0  0
  5  6  1  0  0  0  0
  5  9  1  0  0  0  0
  6  7  1  0  0  0  0
  7  8  1  0  0  0  0
  8  9  1  0  0  0  0
  8 10  1  0  0  0  0
 10 11  1  0  0  0  0
M  END
> <Index>
18279

> <PropertyFieldDistance>
nan

$$$$
9815830
BBcorina  12272117083D 1   1.00000     0.00000 
CORINA 4.3.0 0026  30.10.2019
 11 12  0  0  0  0  0  0  0  0999 V2000
  -36.0071    3.5607  -44.3087 N   0  0  0  0  0  0  0  0  0  0  0  0
  -36.9647    4.5739  -43.8363 C   0  0  0  0  0  0  0  0  0  0  0  0
  -36.6500    4.8975  -42.3726 C   0  0  0  0  0  0  0  0  0  0  0  0
  -35.2300    5.2028  -42.2242 N   0  0  0  0  0  0  0  0  0  0  0  0
  -34.7903    5.9223  -41.0262 C   0  0  0  0  0  0  0  0  0  0  0  0
  -34.9446    5.2126  -39.6795 C   0  0  0  0  0  0  0  0  0  0  0  0
  -35.8681    6.3779  -40.0404 C   0  0  0  0  0  0  0  0  0  0  0  0
  -34.3121    4.8501  -43.1304 C   0  0  0  0  0  0  0  0  0  0  0  0
  -33.1485    5.1119  -42.9109 O   0  0  0  0  0  0  0  0  0  0  0  0
  -34.6620    4.1426  -44.4089 C   0  0  0  0  0  0  0  0  0  0  0  0
  -36.5024    2.9005  -45.8064 X   0  0  0  0  0  0  0  0  0  0  0  0
  1  2  1  0  0  0  0
  1 10  1  0  0  0  0
  1 11  1  0  0  0  0
  2  3  1  0  0  0  0
  3  4  1  0  0  0  0
  4  5  1  0  0  0  0
  4  8  1  0  0  0  0
  5  6  1  0  0  0  0
  5  7  1  0  0  0  0
  6  7  1  0  0  0  0
  8  9  2  0  0  0  0
  8 10  1  0  0  0  0
M  END
> <Index>
18290

> <PropertyFieldDistance>
nan

$$$$
13142156
BBcorina  12272117083D 1   1.00000     0.00000 
CORINA 4.3.0 0026  30.10.2019
 12 12  0  0  0  0  0  0  0  0999 V2000
  -29.3941    5.0243  -43.4358 C   0  0  0  0  0  0  0  0  0  0  0  0
  -30.6878    5.7038  -43.5397 N   0  0  0  0  0  0  0  0  0  0  0  0
  -31.8272    5.0233  -43.3045 C   0  0  0  0  0  0  0  0  0  0  0  0
  -31.7813    3.8456  -43.0060 O   0  0  0  0  0  0  0  0  0  0  0  0
  -33.0174    5.6484  -43.4000 N   0  0  0  0  0  0  0  0  0  0  0  0
  -34.2559    4.9088  -43.1443 C   0  0  0  0  0  0  0  0  0  0  0  0
  -35.3534    5.8832  -42.7080 C   0  0  0  0  0  0  0  0  0  0  0  0
  -36.6587    5.1099  -42.5007 C   0  0  0  0  0  0  0  0  0  0  0  0
  -37.0290    4.3869  -43.7977 C   0  0  0  0  0  0  0  0  0  0  0  0
  -35.9480    3.4664  -44.1723 N   0  0  0  0  0  0  0  0  0  0  0  0
  -34.6958    4.1916  -44.4226 C   0  0  0  0  0  0  0  0  0  0  0  0
  -36.3899    2.5210  -45.5270 X   0  0  0  0  0  0  0  0  0  0  0  0
  1  2  1  0  0  0  0
  2  3  1  0  0  0  0
  3  4  2  0  0  0  0
  3  5  1  0  0  0  0
  5  6  1  0  0  0  0
  6  7  1  0  0  0  0
  6 11  1  0  0  0  0
  7  8  1  0  0  0  0
  8  9  1  0  0  0  0
  9 10  1  0  0  0  0
 10 11  1  0  0  0  0
 10 12  1  0  0  0  0
M  END
> <Index>
18313

> <PropertyFieldDistance>
nan

$$$$
13142164
BBcorina  12272117083D 1   1.00000     0.00000 
CORINA 4.3.0 0026  30.10.2019
 12 13  0  0  0  0  0  0  0  0999 V2000
  -38.3469    5.6760  -42.1347 C   0  0  0  0  0  0  0  0  0  0  0  0
  -36.9590    5.1171  -42.4538 C   0  0  0  0  0  0  0  0  0  0  0  0
  -37.0193    4.3509  -43.7530 C   0  0  0  0  0  0  0  0  0  0  0  0
  -35.8839    3.5133  -44.0714 N   0  0  0  0  0  0  0  0  0  0  0  0
  -34.7048    4.2848  -44.5074 C   0  0  0  0  0  0  0  0  0  0  0  0
  -34.0202    4.7976  -43.2522 C   0  0  0  0  0  0  0  0  0  0  0  0
  -32.7512    4.4658  -42.7839 C   0  0  0  0  0  0  0  0  0  0  0  0
  -32.5443    5.1340  -41.6741 N   0  0  0  0  0  0  0  0  0  0  0  0
  -33.6878    5.9030  -41.4041 N   0  0  0  0  0  0  0  0  0  0  0  0
  -34.5704    5.6771  -42.3901 C   0  0  0  0  0  0  0  0  0  0  0  0
  -35.9557    6.2785  -42.5528 C   0  0  0  0  0  0  0  0  0  0  0  0
  -35.4939    2.4858  -42.7613 X   0  0  0  0  0  0  0  0  0  0  0  0
  1  2  1  0  0  0  0
  2  3  1  0  0  0  0
  2 11  1  0  0  0  0
  3  4  1  0  0  0  0
  4  5  1  0  0  0  0
  4 12  1  0  0  0  0
  5  6  1  0  0  0  0
  6  7  1  0  0  0  0
  6 10  2  0  0  0  0
  7  8  2  0  0  0  0
  8  9  1  0  0  0  0
  9 10  1  0  0  0  0
 10 11  1  0  0  0  0
M  END
> <Index>
18320

> <PropertyFieldDistance>
nan

$$$$
13146384
BBcorina  12272117083D 1   1.00000     0.00000 
CORINA 4.3.0 0026  30.10.2019
 11 12  0  0  0  0  0  0  0  0999 V2000
  -36.0173    3.5927  -44.4913 N   0  0  0  0  0  0  0  0  0  0  0  0
  -36.3933    2.1751  -44.5753 C   0  0  0  0  0  0  0  0  0  0  0  0
  -36.1059    1.6538  -45.9846 C   0  0  0  0  0  0  0  0  0  0  0  0
  -36.6156    0.2210  -46.0917 C   0  0  0  0  0  0  0  0  0  0  0  0
  -36.4294   -0.2806  -47.5438 C   0  0  0  0  0  0  0  0  0  0  0  0
  -36.7285    0.9481  -48.4395 C   0  0  0  0  0  0  0  0  0  0  0  0
  -35.5241    1.8776  -48.5386 C   0  0  0  0  0  0  0  0  0  0  0  0
  -34.3221    1.3522  -47.7178 C   0  0  0  0  0  0  0  0  0  0  0  0
  -34.6107    1.7744  -46.2574 C   0  0  0  0  0  0  0  0  0  0  0  0
  -34.6072   -0.4692  -47.7546 S   0  0  0  0  0  0  0  0  0  0  0  0
  -36.3230    4.2163  -42.9287 X   0  0  0  0  0  0  0  0  0  0  0  0
  1  2  1  0  0  0  0
  1 11  1  0  0  0  0
  2  3  1  0  0  0  0
  3  4  1  0  0  0  0
  3  9  1  0  0  0  0
  4  5  1  0  0  0  0
  5  6  1  0  0  0  0
  5 10  1  0  0  0  0
  6  7  1  0  0  0  0
  7  8  1  0  0  0  0
  8  9  1  0  0  0  0
  8 10  1  0  0  0  0
M  END
> <Index>
18321

> <PropertyFieldDistance>
nan

$$$$
2262148
BBcorina  12272117083D 1   1.00000     0.00000 
CORINA 4.3.0 0026  30.10.2019
 11 11  0  0  0  0  0  0  0  0999 V2000
  -34.1325    2.0632  -45.5329 N   0  0  0  0  0  0  0  0  0  0  0  0
  -35.2884    1.4774  -45.1012 N   0  0  0  0  0  0  0  0  0  0  0  0
  -36.2537    2.2283  -44.5346 C   0  0  0  0  0  0  0  0  0  0  0  0
  -37.3340    1.7347  -44.2748 O   0  0  0  0  0  0  0  0  0  0  0  0
  -36.0214    3.5264  -44.2563 N   0  0  0  0  0  0  0  0  0  0  0  0
  -37.1009    4.4027  -43.7745 C   0  0  0  0  0  0  0  0  0  0  0  0
  -36.6107    5.1259  -42.5149 C   0  0  0  0  0  0  0  0  0  0  0  0
  -35.3574    5.7558  -42.7914 O   0  0  0  0  0  0  0  0  0  0  0  0
  -34.3085    4.8466  -43.1335 C   0  0  0  0  0  0  0  0  0  0  0  0
  -34.6795    4.1077  -44.4193 C   0  0  0  0  0  0  0  0  0  0  0  0
  -32.7659    1.3149  -44.8282 X   0  0  0  0  0  0  0  0  0  0  0  0
  1  2  1  0  0  0  0
  1 11  1  0  0  0  0
  2  3  1  0  0  0  0
  3  4  2  0  0  0  0
  3  5  1  0  0  0  0
  5  6  1  0  0  0  0
  5 10  1  0  0  0  0
  6  7  1  0  0  0  0
  7  8  1  0  0  0  0
  8  9  1  0  0  0  0
  9 10  1  0  0  0  0
M  END
> <Index>
18327

> <PropertyFieldDistance>
nan

$$$$
8305492
BBcorina  12272117083D 1   1.00000     0.00000 
CORINA 4.3.0 0026  30.10.2019
  8  8  0  0  0  0  0  0  0  0999 V2000
  -34.1176    5.0011  -41.7928 F   0  0  0  0  0  0  0  0  0  0  0  0
  -35.0709    4.1676  -42.3876 C   0  0  0  0  0  0  0  0  0  0  0  0
  -35.1687    2.9543  -41.6981 F   0  0  0  0  0  0  0  0  0  0  0  0
  -36.4461    4.8706  -42.4556 C   0  0  0  0  0  0  0  0  0  0  0  0
  -37.0294    4.4814  -43.8266 C   0  0  0  0  0  0  0  0  0  0  0  0
  -36.0504    3.5865  -44.4810 N   0  0  0  0  0  0  0  0  0  0  0  0
  -34.7319    3.9246  -43.8797 C   0  0  0  0  0  0  0  0  0  0  0  0
  -36.0372    3.8262  -46.1741 X   0  0  0  0  0  0  0  0  0  0  0  0
  1  2  1  0  0  0  0
  2  3  1  0  0  0  0
  2  4  1  0  0  0  0
  2  7  1  0  0  0  0
  4  5  1  0  0  0  0
  5  6  1  0  0  0  0
  6  7  1  0  0  0  0
  6  8  1  0  0  0  0
M  END
> <Index>
18332

> <PropertyFieldDistance>
nan

$$$$
13029928
BBcorina  12272117083D 1   1.00000     0.00000 
CORINA 4.3.0 0026  30.10.2019
 11 12  0  0  0  0  0  0  0  0999 V2000
  -33.4611    4.5535  -40.5555 O   0  0  0  0  0  0  0  0  0  0  0  0
  -34.6181    3.9296  -41.1160 C   0  0  0  0  0  0  0  0  0  0  0  0
  -35.1403    4.7751  -42.2793 C   0  0  0  0  0  0  0  0  0  0  0  0
  -35.5607    6.1835  -41.8162 C   0  0  0  0  0  0  0  0  0  0  0  0
  -37.0980    6.0860  -41.6545 C   0  0  0  0  0  0  0  0  0  0  0  0
  -37.5110    5.1924  -42.8495 C   0  0  0  0  0  0  0  0  0  0  0  0
  -36.3812    4.1474  -42.9565 C   0  0  0  0  0  0  0  0  0  0  0  0
  -36.0417    3.9601  -44.3840 N   0  0  0  0  0  0  0  0  0  0  0  0
  -34.5617    3.8564  -44.4423 C   0  0  0  0  0  0  0  0  0  0  0  0
  -34.0917    4.9073  -43.4055 C   0  0  0  0  0  0  0  0  0  0  0  0
  -36.7799    2.5502  -45.0095 X   0  0  0  0  0  0  0  0  0  0  0  0
  1  2  1  0  0  0  0
  2  3  1  0  0  0  0
  3  4  1  0  0  0  0
  3  7  1  0  0  0  0
  3 10  1  0  0  0  0
  4  5  1  0  0  0  0
  5  6  1  0  0  0  0
  6  7  1  0  0  0  0
  7  8  1  0  0  0  0
  8  9  1  0  0  0  0
  8 11  1  0  0  0  0
  9 10  1  0  0  0  0
M  END
> <Index>
18345

> <PropertyFieldDistance>
nan

$$$$
14174246
BBcorina  12272117083D 1   1.00000     0.00000 
CORINA 4.3.0 0026  30.10.2019
 12 12  0  0  0  0  0  0  0  0999 V2000
  -36.3489    2.3379  -44.9329 C   0  0  0  0  0  0  0  0  0  0  0  0
  -36.0416    3.6587  -44.3680 N   0  0  0  0  0  0  0  0  0  0  0  0
  -36.9553    3.9849  -43.2636 C   0  0  0  0  0  0  0  0  0  0  0  0
  -36.6392    5.3903  -42.7449 C   0  0  0  0  0  0  0  0  0  0  0  0
  -35.2666    5.4486  -42.3474 O   0  0  0  0  0  0  0  0  0  0  0  0
  -34.3478    5.1369  -43.3994 C   0  0  0  0  0  0  0  0  0  0  0  0
  -34.6419    3.7291  -43.9243 C   0  0  0  0  0  0  0  0  0  0  0  0
  -34.4077    2.7086  -42.8086 C   0  0  0  0  0  0  0  0  0  0  0  0
  -33.0475    2.7791  -42.3764 O   0  0  0  0  0  0  0  0  0  0  0  0
  -33.7161    3.4194  -45.1024 C   0  0  0  0  0  0  0  0  0  0  0  0
  -33.9415    4.3996  -46.1731 N   0  0  0  0  0  0  0  0  0  0  0  0
  -32.9245    4.0891  -47.5123 X   0  0  0  0  0  0  0  0  0  0  0  0
  1  2  1  0  0  0  0
  2  3  1  0  0  0  0
  2  7  1  0  0  0  0
  3  4  1  0  0  0  0
  4  5  1  0  0  0  0
  5  6  1  0  0  0  0
  6  7  1  0  0  0  0
  7  8  1  0  0  0  0
  7 10  1  0  0  0  0
  8  9  1  0  0  0  0
 10 11  1  0  0  0  0
 11 12  1  0  0  0  0
M  END
> <Index>
18365

> <PropertyFieldDistance>
nan

$$$$
13287790
BBcorina  12272117083D 1   1.00000     0.00000 
CORINA 4.3.0 0026  30.10.2019
 11 11  0  0  0  0  0  0  0  0999 V2000
  -36.9630    1.9106  -45.7348 C   0  0  0  0  0  0  0  0  0  0  0  0
  -35.6932    2.2383  -44.9467 C   0  0  0  0  0  0  0  0  0  0  0  0
  -35.7546    3.6282  -44.4751 N   0  0  0  0  0  0  0  0  0  0  0  0
  -36.9981    3.8730  -43.7001 C   0  0  0  0  0  0  0  0  0  0  0  0
  -36.6857    5.1214  -42.8474 C   0  0  0  0  0  0  0  0  0  0  0  0
  -37.3056    5.0016  -41.5210 N   0  0  0  0  0  0  0  0  0  0  0  0
  -35.1483    5.1469  -42.7224 C   0  0  0  0  0  0  0  0  0  0  0  0
  -34.7328    5.0386  -41.2539 C   0  0  0  0  0  0  0  0  0  0  0  0
  -34.5860    6.4279  -43.3419 C   0  0  0  0  0  0  0  0  0  0  0  0
  -34.6612    3.9117  -43.5101 C   0  0  0  0  0  0  0  0  0  0  0  0
  -38.9823    5.3288  -41.5964 X   0  0  0  0  0  0  0  0  0  0  0  0
  1  2  1  0  0  0  0
  2  3  1  0  0  0  0
  3  4  1  0  0  0  0
  3 10  1  0  0  0  0
  4  5  1  0  0  0  0
  5  6  1  0  0  0  0
  5  7  1  0  0  0  0
  6 11  1  0  0  0  0
  7  8  1  0  0  0  0
  7  9  1  0  0  0  0
  7 10  1  0  0  0  0
M  END
> <Index>
18371

> <PropertyFieldDistance>
nan

$$$$
13142200
BBcorina  12272117083D 1   1.00000     0.00000 
CORINA 4.3.0 0026  30.10.2019
 13 14  0  0  0  0  0  0  0  0999 V2000
  -37.5501    5.1912  -41.3592 C   0  0  0  0  0  0  0  0  0  0  0  0
  -36.5959    5.1993  -42.5552 C   0  0  0  0  0  0  0  0  0  0  0  0
  -36.9814    4.0786  -43.5236 C   0  0  0  0  0  0  0  0  0  0  0  0
  -36.0397    4.0639  -44.6517 N   0  0  0  0  0  0  0  0  0  0  0  0
  -34.6635    3.8504  -44.1823 C   0  0  0  0  0  0  0  0  0  0  0  0
  -34.2779    4.9712  -43.2139 C   0  0  0  0  0  0  0  0  0  0  0  0
  -35.2197    4.9858  -42.0858 N   0  0  0  0  0  0  0  0  0  0  0  0
  -34.8381    6.0007  -41.0947 C   0  0  0  0  0  0  0  0  0  0  0  0
  -33.3953    5.7565  -40.6190 C   0  0  0  0  0  0  0  0  0  0  0  0
  -32.5893    7.0184  -40.9905 C   0  0  0  0  0  0  0  0  0  0  0  0
  -33.6575    8.1354  -41.0913 C   0  0  0  0  0  0  0  0  0  0  0  0
  -34.8586    7.4023  -41.7387 C   0  0  0  0  0  0  0  0  0  0  0  0
  -36.4839    2.8826  -45.8055 X   0  0  0  0  0  0  0  0  0  0  0  0
  1  2  1  0  0  0  0
  2  3  1  0  0  0  0
  2  7  1  0  0  0  0
  3  4  1  0  0  0  0
  4  5  1  0  0  0  0
  4 13  1  0  0  0  0
  5  6  1  0  0  0  0
  6  7  1  0  0  0  0
  7  8  1  0  0  0  0
  8  9  1  0  0  0  0
  8 12  1  0  0  0  0
  9 10  1  0  0  0  0
 10 11  1  0  0  0  0
 11 12  1  0  0  0  0
M  END
> <Index>
18382

> <PropertyFieldDistance>
nan

$$$$
13266202
BBcorina  12272117083D 1   1.00000     0.00000 
CORINA 4.3.0 0026  30.10.2019
 11 12  0  0  0  0  0  0  0  0999 V2000
  -31.8401    3.2359  -45.1118 I   0  0  0  0  0  0  0  0  0  0  0  0
  -33.9329    3.2809  -45.0267 C   0  0  0  0  0  0  0  0  0  0  0  0
  -34.8089    2.5781  -45.8651 C   0  0  0  0  0  0  0  0  0  0  0  0
  -36.0378    2.8609  -45.5056 N   0  0  0  0  0  0  0  0  0  0  0  0
  -35.9812    3.7472  -44.4314 N   0  0  0  0  0  0  0  0  0  0  0  0
  -37.0919    4.3455  -43.6840 C   0  0  0  0  0  0  0  0  0  0  0  0
  -36.5389    4.9006  -42.3652 C   0  0  0  0  0  0  0  0  0  0  0  0
  -35.3581    5.7332  -42.6336 N   0  0  0  0  0  0  0  0  0  0  0  0
  -34.2113    4.9093  -43.0555 C   0  0  0  0  0  0  0  0  0  0  0  0
  -34.6762    3.9906  -44.1578 C   0  0  0  0  0  0  0  0  0  0  0  0
  -35.7087    6.9367  -43.7967 X   0  0  0  0  0  0  0  0  0  0  0  0
  1  2  1  0  0  0  0
  2  3  1  0  0  0  0
  2 10  2  0  0  0  0
  3  4  2  0  0  0  0
  4  5  1  0  0  0  0
  5  6  1  0  0  0  0
  5 10  1  0  0  0  0
  6  7  1  0  0  0  0
  7  8  1  0  0  0  0
  8  9  1  0  0  0  0
  8 11  1  0  0  0  0
  9 10  1  0  0  0  0
M  END
> <Index>
18407

> <PropertyFieldDistance>
nan

$$$$
13259682
BBcorina  12272117083D 1   1.00000     0.00000 
CORINA 4.3.0 0026  30.10.2019
 16 17  0  0  0  0  0  0  0  0999 V2000
  -39.5742    1.7629  -46.7388 C   0  0  0  0  0  0  0  0  0  0  0  0
  -38.0956    1.8896  -46.4770 C   0  0  0  0  0  0  0  0  0  0  0  0
  -37.2008    1.3105  -47.3290 C   0  0  0  0  0  0  0  0  0  0  0  0
  -35.8262    1.4425  -47.0637 C   0  0  0  0  0  0  0  0  0  0  0  0
  -34.9986    0.9378  -47.8045 O   0  0  0  0  0  0  0  0  0  0  0  0
  -35.4397    2.1437  -45.9764 N   0  0  0  0  0  0  0  0  0  0  0  0
  -36.3776    2.6945  -45.1593 C   0  0  0  0  0  0  0  0  0  0  0  0
  -37.6644    2.5661  -45.4148 N   0  0  0  0  0  0  0  0  0  0  0  0
  -35.9780    3.3987  -44.0554 N   0  0  0  0  0  0  0  0  0  0  0  0
  -36.9655    3.9050  -43.0925 C   0  0  0  0  0  0  0  0  0  0  0  0
  -36.7427    5.4087  -42.9023 C   0  0  0  0  0  0  0  0  0  0  0  0
  -35.2873    5.6577  -42.4997 C   0  0  0  0  0  0  0  0  0  0  0  0
  -34.3575    5.1686  -43.6126 C   0  0  0  0  0  0  0  0  0  0  0  0
  -34.5533    3.6622  -43.8109 C   0  0  0  0  0  0  0  0  0  0  0  0
  -35.0784    7.0957  -42.2842 N   0  0  0  0  0  0  0  0  0  0  0  0
  -33.8640    7.3695  -41.1117 X   0  0  0  0  0  0  0  0  0  0  0  0
  1  2  1  0  0  0  0
  2  3  2  0  0  0  0
  2  8  1  0  0  0  0
  3  4  1  0  0  0  0
  4  5  2  0  0  0  0
  4  6  1  0  0  0  0
  6  7  1  0  0  0  0
  7  8  2  0  0  0  0
  7  9  1  0  0  0  0
  9 10  1  0  0  0  0
  9 14  1  0  0  0  0
 10 11  1  0  0  0  0
 11 12  1  0  0  0  0
 12 13  1  0  0  0  0
 12 15  1  0  0  0  0
 13 14  1  0  0  0  0
 15 16  1  0  0  0  0
M  END
> <Index>
18409

> <PropertyFieldDistance>
nan

$$$$
13259686
BBcorina  12272117083D 1   1.00000     0.00000 
CORINA 4.3.0 0026  30.10.2019
 10 10  0  0  0  0  0  0  0  0999 V2000
  -36.3281    2.4453  -45.1044 C   0  0  0  0  0  0  0  0  0  0  0  0
  -36.0591    3.1842  -43.8635 N   0  0  0  0  0  0  0  0  0  0  0  0
  -37.0801    4.2442  -43.6428 C   0  0  0  0  0  0  0  0  0  0  0  0
  -36.4023    5.2370  -42.6743 C   0  0  0  0  0  0  0  0  0  0  0  0
  -36.7780    6.6164  -43.0119 N   0  0  0  0  0  0  0  0  0  0  0  0
  -34.8875    5.0291  -42.8788 C   0  0  0  0  0  0  0  0  0  0  0  0
  -34.2356    6.3218  -43.3737 C   0  0  0  0  0  0  0  0  0  0  0  0
  -34.2335    4.5684  -41.5745 C   0  0  0  0  0  0  0  0  0  0  0  0
  -34.7755    3.9264  -43.9534 C   0  0  0  0  0  0  0  0  0  0  0  0
  -36.6072    6.9052  -44.6886 X   0  0  0  0  0  0  0  0  0  0  0  0
  1  2  1  0  0  0  0
  2  3  1  0  0  0  0
  2  9  1  0  0  0  0
  3  4  1  0  0  0  0
  4  5  1  0  0  0  0
  4  6  1  0  0  0  0
  5 10  1  0  0  0  0
  6  7  1  0  0  0  0
  6  8  1  0  0  0  0
  6  9  1  0  0  0  0
M  END
> <Index>
18412

> <PropertyFieldDistance>
nan

$$$$
13422218
BBcorina  12272117083D 1   1.00000     0.00000 
CORINA 4.3.0 0026  30.10.2019
 11 12  0  0  0  0  0  0  0  0999 V2000
  -35.8094    3.7419  -43.9704 N   0  0  0  0  0  0  0  0  0  0  0  0
  -37.1829    4.2220  -43.7812 C   0  0  0  0  0  0  0  0  0  0  0  0
  -37.3182    4.9052  -42.4195 C   0  0  0  0  0  0  0  0  0  0  0  0
  -36.2345    5.9469  -42.2738 C   0  0  0  0  0  0  0  0  0  0  0  0
  -36.3972    6.9041  -41.5469 O   0  0  0  0  0  0  0  0  0  0  0  0
  -35.0896    5.8022  -42.9586 N   0  0  0  0  0  0  0  0  0  0  0  0
  -33.8288    6.5313  -42.7704 C   0  0  0  0  0  0  0  0  0  0  0  0
  -32.7004    5.6174  -43.2902 C   0  0  0  0  0  0  0  0  0  0  0  0
  -33.4184    4.3473  -43.8074 C   0  0  0  0  0  0  0  0  0  0  0  0
  -34.8584    4.8471  -44.0592 C   0  0  0  0  0  0  0  0  0  0  0  0
  -35.6985    2.7266  -45.3419 X   0  0  0  0  0  0  0  0  0  0  0  0
  1  2  1  0  0  0  0
  1 10  1  0  0  0  0
  1 11  1  0  0  0  0
  2  3  1  0  0  0  0
  3  4  1  0  0  0  0
  4  5  2  0  0  0  0
  4  6  1  0  0  0  0
  6  7  1  0  0  0  0
  6 10  1  0  0  0  0
  7  8  1  0  0  0  0
  8  9  1  0  0  0  0
  9 10  1  0  0  0  0
M  END
> <Index>
18417

> <PropertyFieldDistance>
nan

$$$$
13436484
BBcorina  12272117083D 1   1.00000     0.00000 
CORINA 4.3.0 0026  30.10.2019
 14 15  0  0  0  0  0  0  0  0999 V2000
  -37.5477    5.2034  -41.3541 C   0  0  0  0  0  0  0  0  0  0  0  0
  -36.5939    5.2071  -42.5503 C   0  0  0  0  0  0  0  0  0  0  0  0
  -36.9777    4.0806  -43.5128 C   0  0  0  0  0  0  0  0  0  0  0  0
  -36.0362    4.0619  -44.6411 N   0  0  0  0  0  0  0  0  0  0  0  0
  -34.6595    3.8533  -44.1711 C   0  0  0  0  0  0  0  0  0  0  0  0
  -34.2758    4.9797  -43.2087 C   0  0  0  0  0  0  0  0  0  0  0  0
  -35.2172    4.9985  -42.0804 N   0  0  0  0  0  0  0  0  0  0  0  0
  -34.8558    5.9689  -41.1430 C   0  0  0  0  0  0  0  0  0  0  0  0
  -34.7089    7.2938  -41.5340 C   0  0  0  0  0  0  0  0  0  0  0  0
  -34.3520    8.2508  -40.6045 C   0  0  0  0  0  0  0  0  0  0  0  0
  -34.1410    7.8915  -39.2860 C   0  0  0  0  0  0  0  0  0  0  0  0
  -34.2863    6.5736  -38.8934 C   0  0  0  0  0  0  0  0  0  0  0  0
  -34.6482    5.6123  -39.8166 C   0  0  0  0  0  0  0  0  0  0  0  0
  -36.4787    2.8737  -45.7886 X   0  0  0  0  0  0  0  0  0  0  0  0
  1  2  1  0  0  0  0
  2  3  1  0  0  0  0
  2  7  1  0  0  0  0
  3  4  1  0  0  0  0
  4  5  1  0  0  0  0
  4 14  1  0  0  0  0
  5  6  1  0  0  0  0
  6  7  1  0  0  0  0
  7  8  1  0  0  0  0
  8  9  2  0  0  0  0
  8 13  1  0  0  0  0
  9 10  1  0  0  0  0
 10 11  2  0  0  0  0
 11 12  1  0  0  0  0
 12 13  2  0  0  0  0
M  END
> <Index>
18423

> <PropertyFieldDistance>
nan

$$$$
9447070
BBcorina  12272117083D 1   1.00000     0.00000 
CORINA 4.3.0 0026  30.10.2019
 10 11  0  0  0  0  0  0  0  0999 V2000
  -36.0345    3.7951  -44.5522 N   0  0  0  0  0  0  0  0  0  0  0  0
  -36.8872    3.9666  -43.3661 C   0  0  0  0  0  0  0  0  0  0  0  0
  -36.6731    5.3557  -42.7596 C   0  0  0  0  0  0  0  0  0  0  0  0
  -35.2783    5.4167  -42.1179 C   0  0  0  0  0  0  0  0  0  0  0  0
  -34.2981    4.8472  -43.1172 C   0  0  0  0  0  0  0  0  0  0  0  0
  -33.0008    4.9419  -43.1194 N   0  0  0  0  0  0  0  0  0  0  0  0
  -32.5129    4.2618  -44.2456 N   0  0  0  0  0  0  0  0  0  0  0  0
  -33.5795    3.7516  -44.9216 C   0  0  0  0  0  0  0  0  0  0  0  0
  -34.6944    4.0989  -44.2426 C   0  0  0  0  0  0  0  0  0  0  0  0
  -36.1740    2.2121  -45.1834 X   0  0  0  0  0  0  0  0  0  0  0  0
  1  2  1  0  0  0  0
  1  9  1  0  0  0  0
  1 10  1  0  0  0  0
  2  3  1  0  0  0  0
  3  4  1  0  0  0  0
  4  5  1  0  0  0  0
  5  6  2  0  0  0  0
  5  9  1  0  0  0  0
  6  7  1  0  0  0  0
  7  8  1  0  0  0  0
  8  9  2  0  0  0  0
M  END
> <Index>
18426

> <PropertyFieldDistance>
nan

$$$$
5056164
BBcorina  12272117083D 1   1.00000     0.00000 
CORINA 4.3.0 0026  30.10.2019
 14 15  0  0  0  0  0  0  0  0999 V2000
  -38.3864    0.2873  -47.1667 C   0  0  0  0  0  0  0  0  0  0  0  0
  -37.3174    0.9947  -46.4576 N   0  0  0  0  0  0  0  0  0  0  0  0
  -35.9925    0.7867  -46.6094 C   0  0  0  0  0  0  0  0  0  0  0  0
  -35.3416    1.6397  -45.7861 C   0  0  0  0  0  0  0  0  0  0  0  0
  -36.3055    2.3926  -45.0966 C   0  0  0  0  0  0  0  0  0  0  0  0
  -37.4914    2.0060  -45.5042 N   0  0  0  0  0  0  0  0  0  0  0  0
  -36.0463    3.3873  -44.1439 N   0  0  0  0  0  0  0  0  0  0  0  0
  -37.0824    4.0855  -43.3726 C   0  0  0  0  0  0  0  0  0  0  0  0
  -36.3934    5.3467  -42.8057 C   0  0  0  0  0  0  0  0  0  0  0  0
  -34.9117    4.9066  -42.7660 C   0  0  0  0  0  0  0  0  0  0  0  0
  -34.5701    4.3696  -41.4420 N   0  0  0  0  0  0  0  0  0  0  0  0
  -34.8175    3.8250  -43.8196 C   0  0  0  0  0  0  0  0  0  0  0  0
  -33.7836    3.4133  -44.3020 O   0  0  0  0  0  0  0  0  0  0  0  0
  -35.5395    3.0131  -41.0623 X   0  0  0  0  0  0  0  0  0  0  0  0
  1  2  1  0  0  0  0
  2  3  1  0  0  0  0
  2  6  1  0  0  0  0
  3  4  2  0  0  0  0
  4  5  1  0  0  0  0
  5  6  2  0  0  0  0
  5  7  1  0  0  0  0
  7  8  1  0  0  0  0
  7 12  1  0  0  0  0
  8  9  1  0  0  0  0
  9 10  1  0  0  0  0
 10 11  1  0  0  0  0
 10 12  1  0  0  0  0
 11 14  1  0  0  0  0
 12 13  2  0  0  0  0
M  END
> <Index>
18440

> <PropertyFieldDistance>
nan

$$$$
12636550
BBcorina  12272117083D 1   1.00000     0.00000 
CORINA 4.3.0 0026  30.10.2019
 10 12  0  0  0  0  0  0  0  0999 V2000
  -34.1148    4.7309  -42.4556 N   0  0  0  0  0  0  0  0  0  0  0  0
  -34.5943    3.5441  -43.1765 C   0  0  0  0  0  0  0  0  0  0  0  0
  -34.8717    3.8928  -44.6770 C   0  0  0  0  0  0  0  0  0  0  0  0
  -36.3935    3.6173  -44.8758 C   0  0  0  0  0  0  0  0  0  0  0  0
  -36.9491    4.0274  -43.4664 C   0  0  0  0  0  0  0  0  0  0  0  0
  -35.9890    3.1056  -42.6346 C   0  0  0  0  0  0  0  0  0  0  0  0
  -36.2550    1.7266  -43.3120 C   0  0  0  0  0  0  0  0  0  0  0  0
  -35.2725    1.2796  -44.3963 C   0  0  0  0  0  0  0  0  0  0  0  0
  -36.5228    2.0654  -44.7962 C   0  0  0  0  0  0  0  0  0  0  0  0
  -32.4096    4.8405  -42.5213 X   0  0  0  0  0  0  0  0  0  0  0  0
  1  2  1  0  0  0  0
  1 10  1  0  0  0  0
  2  3  1  0  0  0  0
  2  6  1  0  0  0  0
  3  4  1  0  0  0  0
  4  5  1  0  0  0  0
  4  9  1  0  0  0  0
  5  6  1  0  0  0  0
  6  7  1  0  0  0  0
  7  8  1  0  0  0  0
  7  9  1  0  0  0  0
  8  9  1  0  0  0  0
M  END
> <Index>
18452

> <PropertyFieldDistance>
nan

$$$$
12397774
BBcorina  12272117083D 1   1.00000     0.00000 
CORINA 4.3.0 0026  30.10.2019
 14 15  0  0  0  0  0  0  0  0999 V2000
  -33.9990    5.1074  -41.9140 N   0  0  0  0  0  0  0  0  0  0  0  0
  -34.9178    5.1549  -43.0593 C   0  0  0  0  0  0  0  0  0  0  0  0
  -36.3859    5.1795  -42.5746 C   0  0  0  0  0  0  0  0  0  0  0  0
  -37.0878    4.3201  -43.6494 C   0  0  0  0  0  0  0  0  0  0  0  0
  -36.0450    3.4350  -44.1841 N   0  0  0  0  0  0  0  0  0  0  0  0
  -36.3097    2.2195  -44.9580 C   0  0  0  0  0  0  0  0  0  0  0  0
  -35.6635    2.3419  -46.3414 C   0  0  0  0  0  0  0  0  0  0  0  0
  -35.8777    1.0373  -47.1133 C   0  0  0  0  0  0  0  0  0  0  0  0
  -35.3259   -0.0509  -46.3694 O   0  0  0  0  0  0  0  0  0  0  0  0
  -35.9244   -0.2431  -45.0861 C   0  0  0  0  0  0  0  0  0  0  0  0
  -35.7139    1.0096  -44.2315 C   0  0  0  0  0  0  0  0  0  0  0  0
  -34.8167    3.8831  -43.8723 C   0  0  0  0  0  0  0  0  0  0  0  0
  -33.7785    3.3464  -44.1961 O   0  0  0  0  0  0  0  0  0  0  0  0
  -34.2715    3.7097  -40.9674 X   0  0  0  0  0  0  0  0  0  0  0  0
  1  2  1  0  0  0  0
  1 14  1  0  0  0  0
  2  3  1  0  0  0  0
  2 12  1  0  0  0  0
  3  4  1  0  0  0  0
  4  5  1  0  0  0  0
  5  6  1  0  0  0  0
  5 12  1  0  0  0  0
  6  7  1  0  0  0  0
  6 11  1  0  0  0  0
  7  8  1  0  0  0  0
  8  9  1  0  0  0  0
  9 10  1  0  0  0  0
 10 11  1  0  0  0  0
 12 13  2  0  0  0  0
M  END
> <Index>
18456

> <PropertyFieldDistance>
nan

$$$$
9449538
BBcorina  12272117083D 1   1.00000     0.00000 
CORINA 4.3.0 0026  30.10.2019
 13 13  0  0  0  0  0  0  0  0999 V2000
  -38.4510    0.2548  -46.6907 C   0  0  0  0  0  0  0  0  0  0  0  0
  -37.1140    0.6011  -46.1900 N   0  0  0  0  0  0  0  0  0  0  0  0
  -37.1101    1.9377  -45.5806 C   0  0  0  0  0  0  0  0  0  0  0  0
  -35.7040    2.2621  -45.0720 C   0  0  0  0  0  0  0  0  0  0  0  0
  -35.7000    3.5988  -44.4627 N   0  0  0  0  0  0  0  0  0  0  0  0
  -36.8467    3.7691  -43.5587 C   0  0  0  0  0  0  0  0  0  0  0  0
  -36.8371    5.1918  -42.9932 C   0  0  0  0  0  0  0  0  0  0  0  0
  -35.5894    5.4296  -42.3358 O   0  0  0  0  0  0  0  0  0  0  0  0
  -34.4510    5.2731  -43.1872 C   0  0  0  0  0  0  0  0  0  0  0  0
  -33.1732    5.5146  -42.3812 C   0  0  0  0  0  0  0  0  0  0  0  0
  -34.5297    6.2807  -44.3358 C   0  0  0  0  0  0  0  0  0  0  0  0
  -34.4366    3.8512  -43.7546 C   0  0  0  0  0  0  0  0  0  0  0  0
  -36.5486   -0.5770  -45.0870 X   0  0  0  0  0  0  0  0  0  0  0  0
  1  2  1  0  0  0  0
  2  3  1  0  0  0  0
  2 13  1  0  0  0  0
  3  4  1  0  0  0  0
  4  5  1  0  0  0  0
  5  6  1  0  0  0  0
  5 12  1  0  0  0  0
  6  7  1  0  0  0  0
  7  8  1  0  0  0  0
  8  9  1  0  0  0  0
  9 10  1  0  0  0  0
  9 11  1  0  0  0  0
  9 12  1  0  0  0  0
M  END
> <Index>
18467

> <PropertyFieldDistance>
nan

$$$$
6202288
BBcorina  12272117083D 1   1.00000     0.00000 
CORINA 4.3.0 0026  30.10.2019
 12 13  0  0  0  0  0  0  0  0999 V2000
  -36.5210   -0.2524  -45.3052 C   0  0  0  0  0  0  0  0  0  0  0  0
  -35.7042    0.9679  -44.8754 C   0  0  0  0  0  0  0  0  0  0  0  0
  -35.1423    1.8662  -45.9791 C   0  0  0  0  0  0  0  0  0  0  0  0
  -36.3146    2.3490  -45.1225 C   0  0  0  0  0  0  0  0  0  0  0  0
  -36.0437    3.3950  -44.1332 N   0  0  0  0  0  0  0  0  0  0  0  0
  -37.0789    4.0941  -43.3626 C   0  0  0  0  0  0  0  0  0  0  0  0
  -36.3927    5.3610  -42.8053 C   0  0  0  0  0  0  0  0  0  0  0  0
  -34.9092    4.9215  -42.7632 C   0  0  0  0  0  0  0  0  0  0  0  0
  -34.8152    3.8381  -43.8148 C   0  0  0  0  0  0  0  0  0  0  0  0
  -33.7815    3.4256  -44.2968 O   0  0  0  0  0  0  0  0  0  0  0  0
  -36.8834    5.6744  -41.4565 N   0  0  0  0  0  0  0  0  0  0  0  0
  -36.4729    4.4354  -40.3519 X   0  0  0  0  0  0  0  0  0  0  0  0
  1  2  1  0  0  0  0
  2  3  1  0  0  0  0
  2  4  1  0  0  0  0
  3  4  1  0  0  0  0
  4  5  1  0  0  0  0
  5  6  1  0  0  0  0
  5  9  1  0  0  0  0
  6  7  1  0  0  0  0
  7  8  1  0  0  0  0
  7 11  1  0  0  0  0
  8  9  1  0  0  0  0
  9 10  2  0  0  0  0
 11 12  1  0  0  0  0
M  END
> <Index>
18468

> <PropertyFieldDistance>
nan

$$$$
6179114
BBcorina  12272117083D 1   1.00000     0.00000 
CORINA 4.3.0 0026  30.10.2019
 13 14  0  0  0  0  0  0  0  0999 V2000
  -35.5618   -0.0865  -44.9042 C   0  0  0  0  0  0  0  0  0  0  0  0
  -35.1634    1.3611  -45.1989 C   0  0  0  0  0  0  0  0  0  0  0  0
  -34.8704    1.5409  -46.7039 C   0  0  0  0  0  0  0  0  0  0  0  0
  -36.1468    2.0406  -47.2767 N   0  0  0  0  0  0  0  0  0  0  0  0
  -36.6591    2.9889  -46.2543 C   0  0  0  0  0  0  0  0  0  0  0  0
  -36.3427    2.3152  -44.9018 C   0  0  0  0  0  0  0  0  0  0  0  0
  -35.9484    3.3238  -43.9093 N   0  0  0  0  0  0  0  0  0  0  0  0
  -37.0377    4.2819  -43.6704 C   0  0  0  0  0  0  0  0  0  0  0  0
  -36.6072    5.2766  -42.5891 C   0  0  0  0  0  0  0  0  0  0  0  0
  -35.3979    5.9223  -42.9967 O   0  0  0  0  0  0  0  0  0  0  0  0
  -34.3157    5.0188  -43.2373 C   0  0  0  0  0  0  0  0  0  0  0  0
  -34.7230    4.0215  -44.3252 C   0  0  0  0  0  0  0  0  0  0  0  0
  -35.8803    2.8330  -48.7684 X   0  0  0  0  0  0  0  0  0  0  0  0
  1  2  1  0  0  0  0
  2  3  1  0  0  0  0
  2  6  1  0  0  0  0
  3  4  1  0  0  0  0
  4  5  1  0  0  0  0
  4 13  1  0  0  0  0
  5  6  1  0  0  0  0
  6  7  1  0  0  0  0
  7  8  1  0  0  0  0
  7 12  1  0  0  0  0
  8  9  1  0  0  0  0
  9 10  1  0  0  0  0
 10 11  1  0  0  0  0
 11 12  1  0  0  0  0
M  END
> <Index>
18471

> <PropertyFieldDistance>
nan

$$$$
6179118
BBcorina  12272117083D 1   1.00000     0.00000 
CORINA 4.3.0 0026  30.10.2019
 14 15  0  0  0  0  0  0  0  0999 V2000
  -33.7631   -0.1155  -43.3478 C   0  0  0  0  0  0  0  0  0  0  0  0
  -34.5872    1.1641  -43.5042 C   0  0  0  0  0  0  0  0  0  0  0  0
  -35.5465    1.0117  -44.6863 C   0  0  0  0  0  0  0  0  0  0  0  0
  -36.6116   -0.0631  -44.3802 C   0  0  0  0  0  0  0  0  0  0  0  0
  -37.8591    0.4610  -44.9934 N   0  0  0  0  0  0  0  0  0  0  0  0
  -37.8219    1.9184  -44.7078 C   0  0  0  0  0  0  0  0  0  0  0  0
  -36.3427    2.3152  -44.9018 C   0  0  0  0  0  0  0  0  0  0  0  0
  -35.9484    3.3239  -43.9092 N   0  0  0  0  0  0  0  0  0  0  0  0
  -37.0376    4.2819  -43.6704 C   0  0  0  0  0  0  0  0  0  0  0  0
  -36.6072    5.2766  -42.5891 C   0  0  0  0  0  0  0  0  0  0  0  0
  -35.3979    5.9222  -42.9967 O   0  0  0  0  0  0  0  0  0  0  0  0
  -34.3157    5.0188  -43.2373 C   0  0  0  0  0  0  0  0  0  0  0  0
  -34.7230    4.0214  -44.3252 C   0  0  0  0  0  0  0  0  0  0  0  0
  -39.2389   -0.2660  -44.2921 X   0  0  0  0  0  0  0  0  0  0  0  0
  1  2  1  0  0  0  0
  2  3  1  0  0  0  0
  3  4  1  0  0  0  0
  3  7  1  0  0  0  0
  4  5  1  0  0  0  0
  5  6  1  0  0  0  0
  5 14  1  0  0  0  0
  6  7  1  0  0  0  0
  7  8  1  0  0  0  0
  8  9  1  0  0  0  0
  8 13  1  0  0  0  0
  9 10  1  0  0  0  0
 10 11  1  0  0  0  0
 11 12  1  0  0  0  0
 12 13  1  0  0  0  0
M  END
> <Index>
18472

> <PropertyFieldDistance>
nan

$$$$
10428438
BBcorina  12272117083D 1   1.00000     0.00000 
CORINA 4.3.0 0026  30.10.2019
 12 13  0  0  0  0  0  0  0  0999 V2000
  -35.7356    1.6775  -47.8940 N   0  0  0  0  0  0  0  0  0  0  0  0
  -36.7520    1.1999  -46.9307 C   0  0  0  0  0  0  0  0  0  0  0  0
  -36.2988    2.3622  -46.0288 C   0  0  0  0  0  0  0  0  0  0  0  0
  -36.1806    1.9846  -44.5508 C   0  0  0  0  0  0  0  0  0  0  0  0
  -35.8836    3.1868  -43.7606 N   0  0  0  0  0  0  0  0  0  0  0  0
  -37.0180    4.1218  -43.7772 C   0  0  0  0  0  0  0  0  0  0  0  0
  -36.6898    5.3296  -42.8955 C   0  0  0  0  0  0  0  0  0  0  0  0
  -35.4807    5.9370  -43.3585 O   0  0  0  0  0  0  0  0  0  0  0  0
  -34.3551    5.0547  -43.3549 C   0  0  0  0  0  0  0  0  0  0  0  0
  -34.6596    3.8441  -44.2413 C   0  0  0  0  0  0  0  0  0  0  0  0
  -34.9643    2.3054  -46.7938 C   0  0  0  0  0  0  0  0  0  0  0  0
  -34.8765    0.3671  -48.5785 X   0  0  0  0  0  0  0  0  0  0  0  0
  1  2  1  0  0  0  0
  1 11  1  0  0  0  0
  1 12  1  0  0  0  0
  2  3  1  0  0  0  0
  3  4  1  0  0  0  0
  3 11  1  0  0  0  0
  4  5  1  0  0  0  0
  5  6  1  0  0  0  0
  5 10  1  0  0  0  0
  6  7  1  0  0  0  0
  7  8  1  0  0  0  0
  8  9  1  0  0  0  0
  9 10  1  0  0  0  0
M  END
> <Index>
18482

> <PropertyFieldDistance>
nan

$$$$
15786168
BBcorina  12272117083D 1   1.00000     0.00000 
CORINA 4.3.0 0026  30.10.2019
 10 11  0  0  0  0  0  0  0  0999 V2000
  -32.8714    4.6487  -43.7881 N   0  0  0  0  0  0  0  0  0  0  0  0
  -33.8485    3.5518  -43.7846 C   0  0  0  0  0  0  0  0  0  0  0  0
  -34.7342    3.6561  -45.0272 C   0  0  0  0  0  0  0  0  0  0  0  0
  -35.7023    2.4696  -45.0645 C   0  0  0  0  0  0  0  0  0  0  0  0
  -36.5126    2.4499  -43.7651 C   0  0  0  0  0  0  0  0  0  0  0  0
  -37.8457    3.1973  -43.7484 C   0  0  0  0  0  0  0  0  0  0  0  0
  -37.8249    1.6671  -43.7568 C   0  0  0  0  0  0  0  0  0  0  0  0
  -35.6776    2.4557  -42.4813 C   0  0  0  0  0  0  0  0  0  0  0  0
  -34.7102    3.6426  -42.5244 C   0  0  0  0  0  0  0  0  0  0  0  0
  -33.6557    6.1681  -43.7773 X   0  0  0  0  0  0  0  0  0  0  0  0
  1  2  1  0  0  0  0
  1 10  1  0  0  0  0
  2  3  1  0  0  0  0
  2  9  1  0  0  0  0
  3  4  1  0  0  0  0
  4  5  1  0  0  0  0
  5  6  1  0  0  0  0
  5  7  1  0  0  0  0
  5  8  1  0  0  0  0
  6  7  1  0  0  0  0
  8  9  1  0  0  0  0
M  END
> <Index>
18483

> <PropertyFieldDistance>
nan

$$$$
13146640
BBcorina  12272117083D 1   1.00000     0.00000 
CORINA 4.3.0 0026  30.10.2019
 10 11  0  0  0  0  0  0  0  0999 V2000
  -36.0172    3.5927  -44.4913 N   0  0  0  0  0  0  0  0  0  0  0  0
  -36.3933    2.1751  -44.5752 C   0  0  0  0  0  0  0  0  0  0  0  0
  -36.1059    1.6538  -45.9847 C   0  0  0  0  0  0  0  0  0  0  0  0
  -37.3261    1.3094  -46.8287 C   0  0  0  0  0  0  0  0  0  0  0  0
  -36.4502    0.1943  -46.2369 C   0  0  0  0  0  0  0  0  0  0  0  0
  -35.6306   -0.6167  -47.2382 C   0  0  0  0  0  0  0  0  0  0  0  0
  -34.2593    0.0279  -47.4410 C   0  0  0  0  0  0  0  0  0  0  0  0
  -34.4629    1.4929  -47.8436 C   0  0  0  0  0  0  0  0  0  0  0  0
  -34.8891    2.2836  -46.6066 C   0  0  0  0  0  0  0  0  0  0  0  0
  -36.3230    4.2164  -42.9288 X   0  0  0  0  0  0  0  0  0  0  0  0
  1  2  1  0  0  0  0
  1 10  1  0  0  0  0
  2  3  1  0  0  0  0
  3  4  1  0  0  0  0
  3  5  1  0  0  0  0
  3  9  1  0  0  0  0
  4  5  1  0  0  0  0
  5  6  1  0  0  0  0
  6  7  1  0  0  0  0
  7  8  1  0  0  0  0
  8  9  1  0  0  0  0
M  END
> <Index>
18523

> <PropertyFieldDistance>
nan

$$$$
12386308
BBcorina  12272117083D 1   1.00000     0.00000 
CORINA 4.3.0 0026  30.10.2019
 14 15  0  0  0  0  0  0  0  0999 V2000
  -37.9848    0.4613  -47.4668 N   0  0  0  0  0  0  0  0  0  0  0  0
  -37.6292    1.3472  -48.5849 C   0  0  0  0  0  0  0  0  0  0  0  0
  -37.5460    2.7899  -48.0794 C   0  0  0  0  0  0  0  0  0  0  0  0
  -36.5990    2.8611  -47.0099 O   0  0  0  0  0  0  0  0  0  0  0  0
  -36.9148    2.0113  -45.9038 C   0  0  0  0  0  0  0  0  0  0  0  0
  -35.8263    2.1369  -44.8361 C   0  0  0  0  0  0  0  0  0  0  0  0
  -35.7600    3.5269  -44.3654 N   0  0  0  0  0  0  0  0  0  0  0  0
  -36.8800    3.8316  -43.4630 C   0  0  0  0  0  0  0  0  0  0  0  0
  -36.8070    5.3025  -43.0450 C   0  0  0  0  0  0  0  0  0  0  0  0
  -35.5380    5.5576  -42.4367 O   0  0  0  0  0  0  0  0  0  0  0  0
  -34.4242    5.2730  -43.2876 C   0  0  0  0  0  0  0  0  0  0  0  0
  -34.4731    3.8017  -43.7081 C   0  0  0  0  0  0  0  0  0  0  0  0
  -36.9917    0.5607  -46.3873 C   0  0  0  0  0  0  0  0  0  0  0  0
  -38.1549   -1.1557  -47.9961 X   0  0  0  0  0  0  0  0  0  0  0  0
  1  2  1  0  0  0  0
  1 13  1  0  0  0  0
  1 14  1  0  0  0  0
  2  3  1  0  0  0  0
  3  4  1  0  0  0  0
  4  5  1  0  0  0  0
  5  6  1  0  0  0  0
  5 13  1  0  0  0  0
  6  7  1  0  0  0  0
  7  8  1  0  0  0  0
  7 12  1  0  0  0  0
  8  9  1  0  0  0  0
  9 10  1  0  0  0  0
 10 11  1  0  0  0  0
 11 12  1  0  0  0  0
M  END
> <Index>
18541

> <PropertyFieldDistance>
nan

$$$$
9750170
BBcorina  12272117083D 1   1.00000     0.00000 
CORINA 4.3.0 0026  30.10.2019
 11 11  0  0  0  0  0  0  0  0999 V2000
  -33.1835    6.6241  -44.4222 F   0  0  0  0  0  0  0  0  0  0  0  0
  -32.9630    5.6821  -43.4117 C   0  0  0  0  0  0  0  0  0  0  0  0
  -32.5614    6.3373  -42.2427 F   0  0  0  0  0  0  0  0  0  0  0  0
  -31.9619    4.7917  -43.8145 F   0  0  0  0  0  0  0  0  0  0  0  0
  -34.2558    4.9088  -43.1443 C   0  0  0  0  0  0  0  0  0  0  0  0
  -35.3534    5.8832  -42.7080 C   0  0  0  0  0  0  0  0  0  0  0  0
  -36.6587    5.1099  -42.5008 C   0  0  0  0  0  0  0  0  0  0  0  0
  -37.0290    4.3869  -43.7977 C   0  0  0  0  0  0  0  0  0  0  0  0
  -35.9480    3.4665  -44.1722 N   0  0  0  0  0  0  0  0  0  0  0  0
  -34.6958    4.1916  -44.4227 C   0  0  0  0  0  0  0  0  0  0  0  0
  -36.3902    2.5211  -45.5268 X   0  0  0  0  0  0  0  0  0  0  0  0
  1  2  1  0  0  0  0
  2  3  1  0  0  0  0
  2  4  1  0  0  0  0
  2  5  1  0  0  0  0
  5  6  1  0  0  0  0
  5 10  1  0  0  0  0
  6  7  1  0  0  0  0
  7  8  1  0  0  0  0
  8  9  1  0  0  0  0
  9 10  1  0  0  0  0
  9 11  1  0  0  0  0
M  END
> <Index>
18548

> <PropertyFieldDistance>
nan

$$$$
13773376
BBcorina  12272117083D 1   1.00000     0.00000 
CORINA 4.3.0 0026  30.10.2019
 12 13  0  0  0  0  0  0  0  0999 V2000
  -34.6387    1.6177  -46.6174 N   0  0  0  0  0  0  0  0  0  0  0  0
  -35.2061    1.3540  -45.2882 C   0  0  0  0  0  0  0  0  0  0  0  0
  -36.2578    0.2321  -45.2790 C   0  0  0  0  0  0  0  0  0  0  0  0
  -37.0588    1.0983  -44.2926 C   0  0  0  0  0  0  0  0  0  0  0  0
  -36.3427    2.3152  -44.9018 C   0  0  0  0  0  0  0  0  0  0  0  0
  -35.9484    3.3238  -43.9093 N   0  0  0  0  0  0  0  0  0  0  0  0
  -37.0377    4.2819  -43.6704 C   0  0  0  0  0  0  0  0  0  0  0  0
  -36.6072    5.2766  -42.5891 C   0  0  0  0  0  0  0  0  0  0  0  0
  -35.3979    5.9222  -42.9967 O   0  0  0  0  0  0  0  0  0  0  0  0
  -34.3157    5.0188  -43.2374 C   0  0  0  0  0  0  0  0  0  0  0  0
  -34.7230    4.0214  -44.3251 C   0  0  0  0  0  0  0  0  0  0  0  0
  -32.9884    1.1741  -46.6782 X   0  0  0  0  0  0  0  0  0  0  0  0
  1  2  1  0  0  0  0
  1 12  1  0  0  0  0
  2  3  1  0  0  0  0
  2  5  1  0  0  0  0
  3  4  1  0  0  0  0
  4  5  1  0  0  0  0
  5  6  1  0  0  0  0
  6  7  1  0  0  0  0
  6 11  1  0  0  0  0
  7  8  1  0  0  0  0
  8  9  1  0  0  0  0
  9 10  1  0  0  0  0
 10 11  1  0  0  0  0
M  END
> <Index>
18550

> <PropertyFieldDistance>
nan

$$$$
15110936
BBcorina  12272117083D 1   1.00000     0.00000 
CORINA 4.3.0 0026  30.10.2019
 14 16  0  0  0  0  0  0  0  0999 V2000
  -36.8647    2.4049  -46.9344 O   0  0  0  0  0  0  0  0  0  0  0  0
  -36.1059    1.6538  -45.9847 C   0  0  0  0  0  0  0  0  0  0  0  0
  -36.3933    2.1751  -44.5753 C   0  0  0  0  0  0  0  0  0  0  0  0
  -36.0172    3.5927  -44.4913 N   0  0  0  0  0  0  0  0  0  0  0  0
  -36.4976    0.1774  -46.0720 C   0  0  0  0  0  0  0  0  0  0  0  0
  -36.2102   -0.3441  -47.4814 C   0  0  0  0  0  0  0  0  0  0  0  0
  -34.7186   -0.1932  -47.7867 C   0  0  0  0  0  0  0  0  0  0  0  0
  -33.9060   -0.9974  -46.7698 C   0  0  0  0  0  0  0  0  0  0  0  0
  -34.1935   -0.4760  -45.3604 C   0  0  0  0  0  0  0  0  0  0  0  0
  -35.6851   -0.6269  -45.0551 C   0  0  0  0  0  0  0  0  0  0  0  0
  -33.8017    1.0003  -45.2730 C   0  0  0  0  0  0  0  0  0  0  0  0
  -34.6142    1.8046  -46.2898 C   0  0  0  0  0  0  0  0  0  0  0  0
  -34.3268    1.2833  -47.6993 C   0  0  0  0  0  0  0  0  0  0  0  0
  -36.3230    4.2164  -42.9287 X   0  0  0  0  0  0  0  0  0  0  0  0
  1  2  1  0  0  0  0
  2  3  1  0  0  0  0
  2  5  1  0  0  0  0
  2 12  1  0  0  0  0
  3  4  1  0  0  0  0
  4 14  1  0  0  0  0
  5  6  1  0  0  0  0
  5 10  1  0  0  0  0
  6  7  1  0  0  0  0
  7  8  1  0  0  0  0
  7 13  1  0  0  0  0
  8  9  1  0  0  0  0
  9 10  1  0  0  0  0
  9 11  1  0  0  0  0
 11 12  1  0  0  0  0
 12 13  1  0  0  0  0
M  END
> <Index>
18561

> <PropertyFieldDistance>
nan

$$$$
12525938
BBcorina  12272117083D 1   1.00000     0.00000 
CORINA 4.3.0 0026  30.10.2019
 12 12  0  0  0  0  0  0  0  0999 V2000
  -31.4330    3.5441  -44.1705 C   0  0  0  0  0  0  0  0  0  0  0  0
  -31.5537    4.9608  -43.0438 S   0  0  0  0  0  0  0  0  0  0  0  0
  -30.6037    5.9580  -43.3932 O   0  0  0  0  0  0  0  0  0  0  0  0
  -31.6917    4.5191  -41.7003 O   0  0  0  0  0  0  0  0  0  0  0  0
  -33.0174    5.6484  -43.4000 N   0  0  0  0  0  0  0  0  0  0  0  0
  -34.2559    4.9088  -43.1443 C   0  0  0  0  0  0  0  0  0  0  0  0
  -35.3534    5.8832  -42.7079 C   0  0  0  0  0  0  0  0  0  0  0  0
  -36.6587    5.1099  -42.5007 C   0  0  0  0  0  0  0  0  0  0  0  0
  -37.0291    4.3869  -43.7977 C   0  0  0  0  0  0  0  0  0  0  0  0
  -35.9479    3.4664  -44.1723 N   0  0  0  0  0  0  0  0  0  0  0  0
  -34.6958    4.1916  -44.4226 C   0  0  0  0  0  0  0  0  0  0  0  0
  -36.3899    2.5210  -45.5270 X   0  0  0  0  0  0  0  0  0  0  0  0
  1  2  1  0  0  0  0
  2  3  2  0  0  0  0
  2  4  2  0  0  0  0
  2  5  1  0  0  0  0
  5  6  1  0  0  0  0
  6  7  1  0  0  0  0
  6 11  1  0  0  0  0
  7  8  1  0  0  0  0
  8  9  1  0  0  0  0
  9 10  1  0  0  0  0
 10 11  1  0  0  0  0
 10 12  1  0  0  0  0
M  END
> <Index>
18565

> <PropertyFieldDistance>
nan

$$$$
14932874
BBcorina  12272117083D 1   1.00000     0.00000 
CORINA 4.3.0 0026  30.10.2019
 14 16  0  0  0  0  0  0  0  0999 V2000
  -36.0173    3.5927  -44.4913 N   0  0  0  0  0  0  0  0  0  0  0  0
  -36.3933    2.1752  -44.5752 C   0  0  0  0  0  0  0  0  0  0  0  0
  -36.1059    1.6538  -45.9847 C   0  0  0  0  0  0  0  0  0  0  0  0
  -36.4976    0.1774  -46.0720 C   0  0  0  0  0  0  0  0  0  0  0  0
  -36.0959   -0.3767  -47.4405 C   0  0  0  0  0  0  0  0  0  0  0  0
  -36.8153    0.4077  -48.5395 C   0  0  0  0  0  0  0  0  0  0  0  0
  -38.3282    0.2697  -48.3576 C   0  0  0  0  0  0  0  0  0  0  0  0
  -38.7199   -1.2068  -48.4450 C   0  0  0  0  0  0  0  0  0  0  0  0
  -38.0003   -1.9911  -47.3458 C   0  0  0  0  0  0  0  0  0  0  0  0
  -36.4875   -1.8531  -47.5278 C   0  0  0  0  0  0  0  0  0  0  0  0
  -38.4021   -1.4371  -45.9775 C   0  0  0  0  0  0  0  0  0  0  0  0
  -38.0105    0.0394  -45.8901 C   0  0  0  0  0  0  0  0  0  0  0  0
  -38.7299    0.8238  -46.9891 C   0  0  0  0  0  0  0  0  0  0  0  0
  -36.3229    4.2163  -42.9286 X   0  0  0  0  0  0  0  0  0  0  0  0
  1  2  1  0  0  0  0
  1 14  1  0  0  0  0
  2  3  1  0  0  0  0
  3  4  1  0  0  0  0
  4  5  1  0  0  0  0
  4 12  1  0  0  0  0
  5  6  1  0  0  0  0
  5 10  1  0  0  0  0
  6  7  1  0  0  0  0
  7  8  1  0  0  0  0
  7 13  1  0  0  0  0
  8  9  1  0  0  0  0
  9 10  1  0  0  0  0
  9 11  1  0  0  0  0
 11 12  1  0  0  0  0
 12 13  1  0  0  0  0
M  END
> <Index>
18566

> <PropertyFieldDistance>
nan

$$$$
10860186
BBcorina  12272117083D 1   1.00000     0.00000 
CORINA 4.3.0 0026  30.10.2019
 13 13  0  0  0  0  0  0  0  0999 V2000
  -29.4973    5.7724  -43.8303 C   0  0  0  0  0  0  0  0  0  0  0  0
  -30.6149    5.2582  -43.0347 N   0  0  0  0  0  0  0  0  0  0  0  0
  -30.3717    4.7120  -41.6974 C   0  0  0  0  0  0  0  0  0  0  0  0
  -31.8667    5.2877  -43.5333 C   0  0  0  0  0  0  0  0  0  0  0  0
  -32.0568    5.6506  -44.6781 O   0  0  0  0  0  0  0  0  0  0  0  0
  -32.9078    4.9148  -42.7630 N   0  0  0  0  0  0  0  0  0  0  0  0
  -34.2769    5.0496  -43.2665 C   0  0  0  0  0  0  0  0  0  0  0  0
  -35.2462    5.1676  -42.0870 C   0  0  0  0  0  0  0  0  0  0  0  0
  -36.6793    5.2476  -42.6202 C   0  0  0  0  0  0  0  0  0  0  0  0
  -36.9723    4.0086  -43.4695 C   0  0  0  0  0  0  0  0  0  0  0  0
  -36.0192    3.9414  -44.5846 N   0  0  0  0  0  0  0  0  0  0  0  0
  -34.6396    3.8164  -44.0970 C   0  0  0  0  0  0  0  0  0  0  0  0
  -36.4111    2.6622  -45.6494 X   0  0  0  0  0  0  0  0  0  0  0  0
  1  2  1  0  0  0  0
  2  3  1  0  0  0  0
  2  4  1  0  0  0  0
  4  5  2  0  0  0  0
  4  6  1  0  0  0  0
  6  7  1  0  0  0  0
  7  8  1  0  0  0  0
  7 12  1  0  0  0  0
  8  9  1  0  0  0  0
  9 10  1  0  0  0  0
 10 11  1  0  0  0  0
 11 12  1  0  0  0  0
 11 13  1  0  0  0  0
M  END
> <Index>
18568

> <PropertyFieldDistance>
nan

$$$$
13160592
BBcorina  12272117083D 1   1.00000     0.00000 
CORINA 4.3.0 0026  30.10.2019
  9  9  0  0  0  0  0  0  0  0999 V2000
  -35.9678    5.3276  -40.1975 C   0  0  0  0  0  0  0  0  0  0  0  0
  -35.6862    4.7401  -41.5819 C   0  0  0  0  0  0  0  0  0  0  0  0
  -36.7959    5.1469  -42.5172 C   0  0  0  0  0  0  0  0  0  0  0  0
  -37.0166    4.0278  -43.5576 C   0  0  0  0  0  0  0  0  0  0  0  0
  -36.0040    4.0243  -44.5311 N   0  0  0  0  0  0  0  0  0  0  0  0
  -34.6477    3.7854  -44.0001 C   0  0  0  0  0  0  0  0  0  0  0  0
  -34.1231    5.0791  -43.4316 C   0  0  0  0  0  0  0  0  0  0  0  0
  -34.3892    5.1924  -42.0216 O   0  0  0  0  0  0  0  0  0  0  0  0
  -36.3702    2.9291  -45.7923 X   0  0  0  0  0  0  0  0  0  0  0  0
  1  2  1  0  0  0  0
  2  3  1  0  0  0  0
  2  8  1  0  0  0  0
  3  4  1  0  0  0  0
  4  5  1  0  0  0  0
  5  6  1  0  0  0  0
  5  9  1  0  0  0  0
  6  7  1  0  0  0  0
  7  8  1  0  0  0  0
M  END
> <Index>
18569

> <PropertyFieldDistance>
nan

$$$$
15355932
BBcorina  12272117083D 1   1.00000     0.00000 
CORINA 4.3.0 0026  30.10.2019
 10 11  0  0  0  0  0  0  0  0999 V2000
  -34.4149    2.1091  -41.6391 N   0  0  0  0  0  0  0  0  0  0  0  0
  -35.1988    2.6312  -42.7665 C   0  0  0  0  0  0  0  0  0  0  0  0
  -35.1967    4.1630  -42.7249 C   0  0  0  0  0  0  0  0  0  0  0  0
  -35.8623    4.6934  -44.0038 C   0  0  0  0  0  0  0  0  0  0  0  0
  -37.2008    3.9425  -44.1929 C   0  0  0  0  0  0  0  0  0  0  0  0
  -36.8173    2.7039  -45.0333 C   0  0  0  0  0  0  0  0  0  0  0  0
  -35.2939    2.8575  -45.2492 C   0  0  0  0  0  0  0  0  0  0  0  0
  -34.5762    2.1586  -44.0845 C   0  0  0  0  0  0  0  0  0  0  0  0
  -35.0502    4.2763  -45.1239 O   0  0  0  0  0  0  0  0  0  0  0  0
  -32.8270    2.7436  -41.6509 X   0  0  0  0  0  0  0  0  0  0  0  0
  1  2  1  0  0  0  0
  1 10  1  0  0  0  0
  2  3  1  0  0  0  0
  2  8  1  0  0  0  0
  3  4  1  0  0  0  0
  4  5  1  0  0  0  0
  4  9  1  0  0  0  0
  5  6  1  0  0  0  0
  6  7  1  0  0  0  0
  7  8  1  0  0  0  0
  7  9  1  0  0  0  0
M  END
> <Index>
18570

> <PropertyFieldDistance>
nan

$$$$
12631736
BBcorina  12272117083D 1   1.00000     0.00000 
CORINA 4.3.0 0026  30.10.2019
 11 12  0  0  0  0  0  0  0  0999 V2000
  -36.0188    2.4154  -44.6896 C   0  0  0  0  0  0  0  0  0  0  0  0
  -36.0593    3.8487  -44.3703 N   0  0  0  0  0  0  0  0  0  0  0  0
  -37.3315    4.2068  -43.6862 C   0  0  0  0  0  0  0  0  0  0  0  0
  -36.9469    4.9359  -42.3687 C   0  0  0  0  0  0  0  0  0  0  0  0
  -35.5324    5.4390  -42.6900 C   0  0  0  0  0  0  0  0  0  0  0  0
  -34.6231    5.6605  -41.4943 C   0  0  0  0  0  0  0  0  0  0  0  0
  -33.2889    6.0084  -42.0223 N   0  0  0  0  0  0  0  0  0  0  0  0
  -32.7089    4.9746  -42.8807 C   0  0  0  0  0  0  0  0  0  0  0  0
  -33.6421    4.6176  -44.0509 C   0  0  0  0  0  0  0  0  0  0  0  0
  -34.9761    4.2132  -43.4674 C   0  0  0  0  0  0  0  0  0  0  0  0
  -32.2182    6.4251  -40.7557 X   0  0  0  0  0  0  0  0  0  0  0  0
  1  2  1  0  0  0  0
  2  3  1  0  0  0  0
  2 10  1  0  0  0  0
  3  4  1  0  0  0  0
  4  5  1  0  0  0  0
  5  6  1  0  0  0  0
  5 10  1  0  0  0  0
  6  7  1  0  0  0  0
  7  8  1  0  0  0  0
  7 11  1  0  0  0  0
  8  9  1  0  0  0  0
  9 10  1  0  0  0  0
M  END
> <Index>
18573

> <PropertyFieldDistance>
nan

$$$$
14796386
BBcorina  12272117083D 1   1.00000     0.00000 
CORINA 4.3.0 0026  30.10.2019
 12 13  0  0  0  0  0  0  0  0999 V2000
  -35.9428    3.4487  -44.5418 N   0  0  0  0  0  0  0  0  0  0  0  0
  -37.0946    4.2304  -44.0724 C   0  0  0  0  0  0  0  0  0  0  0  0
  -36.5922    5.1740  -42.9739 C   0  0  0  0  0  0  0  0  0  0  0  0
  -37.3896    5.1097  -41.7043 C   0  0  0  0  0  0  0  0  0  0  0  0
  -36.9507    6.1763  -40.6990 C   0  0  0  0  0  0  0  0  0  0  0  0
  -35.5146    5.9135  -40.2436 C   0  0  0  0  0  0  0  0  0  0  0  0
  -34.5444    6.5313  -41.2224 C   0  0  0  0  0  0  0  0  0  0  0  0
  -33.9410    7.5380  -40.9165 O   0  0  0  0  0  0  0  0  0  0  0  0
  -34.3459    5.9708  -42.4101 N   0  0  0  0  0  0  0  0  0  0  0  0
  -35.1216    4.7936  -42.7767 C   0  0  0  0  0  0  0  0  0  0  0  0
  -34.7314    4.2281  -44.1593 C   0  0  0  0  0  0  0  0  0  0  0  0
  -36.0037    3.2012  -46.2327 X   0  0  0  0  0  0  0  0  0  0  0  0
  1  2  1  0  0  0  0
  1 11  1  0  0  0  0
  1 12  1  0  0  0  0
  2  3  1  0  0  0  0
  3  4  1  0  0  0  0
  3 10  1  0  0  0  0
  4  5  1  0  0  0  0
  5  6  1  0  0  0  0
  6  7  1  0  0  0  0
  7  8  2  0  0  0  0
  7  9  1  0  0  0  0
  9 10  1  0  0  0  0
 10 11  1  0  0  0  0
M  END
> <Index>
18574

> <PropertyFieldDistance>
nan

$$$$
14421486
BBcorina  12272117083D 1   1.00000     0.00000 
CORINA 4.3.0 0026  30.10.2019
 11 12  0  0  0  0  0  0  0  0999 V2000
  -35.9701    3.4237  -44.5234 N   0  0  0  0  0  0  0  0  0  0  0  0
  -37.0657    4.3854  -44.2089 C   0  0  0  0  0  0  0  0  0  0  0  0
  -36.5815    5.0675  -42.9272 C   0  0  0  0  0  0  0  0  0  0  0  0
  -37.1241    6.4563  -42.6448 C   0  0  0  0  0  0  0  0  0  0  0  0
  -36.4845    6.9188  -41.3252 C   0  0  0  0  0  0  0  0  0  0  0  0
  -35.0491    6.5039  -41.2102 C   0  0  0  0  0  0  0  0  0  0  0  0
  -34.4134    6.9456  -40.2766 O   0  0  0  0  0  0  0  0  0  0  0  0
  -34.4082    5.6784  -42.0620 N   0  0  0  0  0  0  0  0  0  0  0  0
  -35.0757    5.2597  -43.2675 C   0  0  0  0  0  0  0  0  0  0  0  0
  -34.7167    3.9245  -43.8984 C   0  0  0  0  0  0  0  0  0  0  0  0
  -35.7817    3.2406  -46.2131 X   0  0  0  0  0  0  0  0  0  0  0  0
  1  2  1  0  0  0  0
  1 10  1  0  0  0  0
  1 11  1  0  0  0  0
  2  3  1  0  0  0  0
  3  4  1  0  0  0  0
  3  9  1  0  0  0  0
  4  5  1  0  0  0  0
  5  6  1  0  0  0  0
  6  7  2  0  0  0  0
  6  8  1  0  0  0  0
  8  9  1  0  0  0  0
  9 10  1  0  0  0  0
M  END
> <Index>
18575

> <PropertyFieldDistance>
nan

$$$$
12216810
BBcorina  12272117083D 1   1.00000     0.00000 
CORINA 4.3.0 0026  30.10.2019
 11 11  0  0  0  0  0  0  0  0999 V2000
  -37.5657    5.3164  -41.4222 C   0  0  0  0  0  0  0  0  0  0  0  0
  -36.6293    5.2502  -42.6303 C   0  0  0  0  0  0  0  0  0  0  0  0
  -36.9724    4.0211  -43.4763 C   0  0  0  0  0  0  0  0  0  0  0  0
  -36.0215    3.9204  -44.5930 N   0  0  0  0  0  0  0  0  0  0  0  0
  -34.6419    3.8204  -44.0951 C   0  0  0  0  0  0  0  0  0  0  0  0
  -34.3222    5.0515  -43.2430 C   0  0  0  0  0  0  0  0  0  0  0  0
  -35.2751    5.1506  -42.1811 O   0  0  0  0  0  0  0  0  0  0  0  0
  -32.9369    4.9174  -42.6649 C   0  0  0  0  0  0  0  0  0  0  0  0
  -32.7872    4.8203  -41.4654 O   0  0  0  0  0  0  0  0  0  0  0  0
  -31.8645    4.9054  -43.4810 N   0  0  0  0  0  0  0  0  0  0  0  0
  -36.4046    2.5974  -45.6065 X   0  0  0  0  0  0  0  0  0  0  0  0
  1  2  1  0  0  0  0
  2  3  1  0  0  0  0
  2  7  1  0  0  0  0
  3  4  1  0  0  0  0
  4  5  1  0  0  0  0
  4 11  1  0  0  0  0
  5  6  1  0  0  0  0
  6  7  1  0  0  0  0
  6  8  1  0  0  0  0
  8  9  2  0  0  0  0
  8 10  1  0  0  0  0
M  END
> <Index>
18576

> <PropertyFieldDistance>
nan

$$$$
12632426
BBcorina  12272117083D 1   1.00000     0.00000 
CORINA 4.3.0 0026  30.10.2019
 11 11  0  0  0  0  0  0  0  0999 V2000
  -35.2107    5.5048  -42.4050 N   0  0  0  0  0  0  0  0  0  0  0  0
  -36.6299    5.4522  -42.7828 C   0  0  0  0  0  0  0  0  0  0  0  0
  -36.9971    4.0198  -43.1779 C   0  0  0  0  0  0  0  0  0  0  0  0
  -36.1420    3.5873  -44.2922 N   0  0  0  0  0  0  0  0  0  0  0  0
  -36.5152    2.2426  -44.7509 C   0  0  0  0  0  0  0  0  0  0  0  0
  -35.7823    1.9276  -46.0565 C   0  0  0  0  0  0  0  0  0  0  0  0
  -36.1562    0.5801  -46.5162 C   0  0  0  0  0  0  0  0  0  0  0  0
  -36.4448   -0.4598  -46.8709 N   0  0  0  0  0  0  0  0  0  0  0  0
  -34.7229    3.6399  -43.9143 C   0  0  0  0  0  0  0  0  0  0  0  0
  -34.3557    5.0723  -43.5191 C   0  0  0  0  0  0  0  0  0  0  0  0
  -34.7764    7.0700  -41.8709 X   0  0  0  0  0  0  0  0  0  0  0  0
  1  2  1  0  0  0  0
  1 10  1  0  0  0  0
  1 11  1  0  0  0  0
  2  3  1  0  0  0  0
  3  4  1  0  0  0  0
  4  5  1  0  0  0  0
  4  9  1  0  0  0  0
  5  6  1  0  0  0  0
  6  7  1  0  0  0  0
  7  8  3  0  0  0  0
  9 10  1  0  0  0  0
M  END
> <Index>
18582

> <PropertyFieldDistance>
nan

$$$$
8799428
BBcorina  12272117083D 1   1.00000     0.00000 
CORINA 4.3.0 0026  30.10.2019
 11 11  0  0  0  0  0  0  0  0999 V2000
  -31.6329    4.5237  -44.0995 C   0  0  0  0  0  0  0  0  0  0  0  0
  -32.7230    5.8256  -43.4612 S   0  0  0  0  0  0  0  0  0  0  0  0
  -32.9636    6.7644  -44.5004 O   0  0  0  0  0  0  0  0  0  0  0  0
  -32.2039    6.2825  -42.2199 O   0  0  0  0  0  0  0  0  0  0  0  0
  -34.2558    4.9088  -43.1443 C   0  0  0  0  0  0  0  0  0  0  0  0
  -35.3535    5.8832  -42.7080 C   0  0  0  0  0  0  0  0  0  0  0  0
  -36.6587    5.1099  -42.5007 C   0  0  0  0  0  0  0  0  0  0  0  0
  -37.0290    4.3869  -43.7977 C   0  0  0  0  0  0  0  0  0  0  0  0
  -35.9479    3.4664  -44.1723 N   0  0  0  0  0  0  0  0  0  0  0  0
  -34.6959    4.1916  -44.4226 C   0  0  0  0  0  0  0  0  0  0  0  0
  -36.3899    2.5210  -45.5269 X   0  0  0  0  0  0  0  0  0  0  0  0
  1  2  1  0  0  0  0
  2  3  2  0  0  0  0
  2  4  2  0  0  0  0
  2  5  1  0  0  0  0
  5  6  1  0  0  0  0
  5 10  1  0  0  0  0
  6  7  1  0  0  0  0
  7  8  1  0  0  0  0
  8  9  1  0  0  0  0
  9 10  1  0  0  0  0
  9 11  1  0  0  0  0
M  END
> <Index>
18587

> <PropertyFieldDistance>
nan

$$$$
12359872
BBcorina  12272117083D 1   1.00000     0.00000 
CORINA 4.3.0 0026  30.10.2019
 12 13  0  0  0  0  0  0  0  0999 V2000
  -36.0397    4.0639  -44.6517 N   0  0  0  0  0  0  0  0  0  0  0  0
  -36.9814    4.0786  -43.5236 C   0  0  0  0  0  0  0  0  0  0  0  0
  -36.5959    5.1993  -42.5552 C   0  0  0  0  0  0  0  0  0  0  0  0
  -35.2197    4.9858  -42.0858 N   0  0  0  0  0  0  0  0  0  0  0  0
  -34.8381    6.0007  -41.0947 C   0  0  0  0  0  0  0  0  0  0  0  0
  -35.7224    6.1443  -39.8545 C   0  0  0  0  0  0  0  0  0  0  0  0
  -34.3355    5.5076  -39.7364 C   0  0  0  0  0  0  0  0  0  0  0  0
  -34.2779    4.9712  -43.2139 C   0  0  0  0  0  0  0  0  0  0  0  0
  -34.6635    3.8504  -44.1823 C   0  0  0  0  0  0  0  0  0  0  0  0
  -32.9139    4.7388  -42.7119 C   0  0  0  0  0  0  0  0  0  0  0  0
  -31.8612    4.5594  -42.3245 N   0  0  0  0  0  0  0  0  0  0  0  0
  -36.4839    2.8826  -45.8055 X   0  0  0  0  0  0  0  0  0  0  0  0
  1  2  1  0  0  0  0
  1  9  1  0  0  0  0
  1 12  1  0  0  0  0
  2  3  1  0  0  0  0
  3  4  1  0  0  0  0
  4  5  1  0  0  0  0
  4  8  1  0  0  0  0
  5  6  1  0  0  0  0
  5  7  1  0  0  0  0
  6  7  1  0  0  0  0
  8  9  1  0  0  0  0
  8 10  1  0  0  0  0
 10 11  3  0  0  0  0
M  END
> <Index>
18600

> <PropertyFieldDistance>
nan

$$$$
12643270
BBcorina  12272117083D 1   1.00000     0.00000 
CORINA 4.3.0 0026  30.10.2019
 13 14  0  0  0  0  0  0  0  0999 V2000
  -35.8000    2.6702  -44.0644 C   0  0  0  0  0  0  0  0  0  0  0  0
  -36.4757    3.7775  -44.7540 N   0  0  0  0  0  0  0  0  0  0  0  0
  -37.2551    4.5889  -43.8092 C   0  0  0  0  0  0  0  0  0  0  0  0
  -36.5491    4.6977  -42.4717 C   0  0  0  0  0  0  0  0  0  0  0  0
  -35.3099    5.4626  -42.5145 N   0  0  0  0  0  0  0  0  0  0  0  0
  -34.2613    4.7823  -43.2895 C   0  0  0  0  0  0  0  0  0  0  0  0
  -34.4675    5.1035  -44.7540 C   0  0  0  0  0  0  0  0  0  0  0  0
  -33.5663    5.9106  -45.4203 C   0  0  0  0  0  0  0  0  0  0  0  0
  -33.7903    6.1653  -46.7689 C   0  0  0  0  0  0  0  0  0  0  0  0
  -34.8929    5.6096  -47.3858 C   0  0  0  0  0  0  0  0  0  0  0  0
  -35.7363    4.8459  -46.7166 N   0  0  0  0  0  0  0  0  0  0  0  0
  -35.5554    4.5827  -45.4292 C   0  0  0  0  0  0  0  0  0  0  0  0
  -35.5846    7.0418  -43.1099 X   0  0  0  0  0  0  0  0  0  0  0  0
  1  2  1  0  0  0  0
  2  3  1  0  0  0  0
  2 12  1  0  0  0  0
  3  4  1  0  0  0  0
  4  5  1  0  0  0  0
  5  6  1  0  0  0  0
  5 13  1  0  0  0  0
  6  7  1  0  0  0  0
  7  8  2  0  0  0  0
  7 12  1  0  0  0  0
  8  9  1  0  0  0  0
  9 10  2  0  0  0  0
 10 11  1  0  0  0  0
 11 12  2  0  0  0  0
M  END
> <Index>
18604

> <PropertyFieldDistance>
nan

$$$$
9601342
BBcorina  12272117083D 1   1.00000     0.00000 
CORINA 4.3.0 0026  30.10.2019
  9  9  0  0  0  0  0  0  0  0999 V2000
  -34.9808    6.5010  -41.5093 F   0  0  0  0  0  0  0  0  0  0  0  0
  -35.3535    5.8833  -42.7079 C   0  0  0  0  0  0  0  0  0  0  0  0
  -35.5366    6.8550  -43.6976 F   0  0  0  0  0  0  0  0  0  0  0  0
  -36.6585    5.1099  -42.5008 C   0  0  0  0  0  0  0  0  0  0  0  0
  -37.0291    4.3869  -43.7977 C   0  0  0  0  0  0  0  0  0  0  0  0
  -35.9480    3.4664  -44.1723 N   0  0  0  0  0  0  0  0  0  0  0  0
  -34.6958    4.1916  -44.4226 C   0  0  0  0  0  0  0  0  0  0  0  0
  -34.2559    4.9088  -43.1442 C   0  0  0  0  0  0  0  0  0  0  0  0
  -36.3899    2.5211  -45.5270 X   0  0  0  0  0  0  0  0  0  0  0  0
  1  2  1  0  0  0  0
  2  3  1  0  0  0  0
  2  4  1  0  0  0  0
  2  8  1  0  0  0  0
  4  5  1  0  0  0  0
  5  6  1  0  0  0  0
  6  7  1  0  0  0  0
  6  9  1  0  0  0  0
  7  8  1  0  0  0  0
M  END
> <Index>
18622

> <PropertyFieldDistance>
nan

$$$$
9322676
BBcorina  12272117083D 1   1.00000     0.00000 
CORINA 4.3.0 0026  30.10.2019
 13 14  0  0  0  0  0  0  0  0999 V2000
  -36.0194    3.9411  -44.5845 N   0  0  0  0  0  0  0  0  0  0  0  0
  -36.9723    4.0084  -43.4693 C   0  0  0  0  0  0  0  0  0  0  0  0
  -36.6796    5.2477  -42.6204 C   0  0  0  0  0  0  0  0  0  0  0  0
  -35.2463    5.1684  -42.0875 C   0  0  0  0  0  0  0  0  0  0  0  0
  -34.2763    5.0495  -43.2662 C   0  0  0  0  0  0  0  0  0  0  0  0
  -34.6397    3.8168  -44.0972 C   0  0  0  0  0  0  0  0  0  0  0  0
  -34.9321    6.4145  -41.3003 C   0  0  0  0  0  0  0  0  0  0  0  0
  -34.5787    6.3380  -39.9617 C   0  0  0  0  0  0  0  0  0  0  0  0
  -34.2978    7.5022  -39.2719 C   0  0  0  0  0  0  0  0  0  0  0  0
  -34.3678    8.6749  -39.8710 N   0  0  0  0  0  0  0  0  0  0  0  0
  -34.6955    8.7849  -41.1437 C   0  0  0  0  0  0  0  0  0  0  0  0
  -34.9899    7.6645  -41.8972 C   0  0  0  0  0  0  0  0  0  0  0  0
  -36.4110    2.6614  -45.6489 X   0  0  0  0  0  0  0  0  0  0  0  0
  1  2  1  0  0  0  0
  1  6  1  0  0  0  0
  1 13  1  0  0  0  0
  2  3  1  0  0  0  0
  3  4  1  0  0  0  0
  4  5  1  0  0  0  0
  4  7  1  0  0  0  0
  5  6  1  0  0  0  0
  7  8  2  0  0  0  0
  7 12  1  0  0  0  0
  8  9  1  0  0  0  0
  9 10  2  0  0  0  0
 10 11  1  0  0  0  0
 11 12  2  0  0  0  0
M  END
> <Index>
18625

> <PropertyFieldDistance>
nan

$$$$
1128828
BBcorina  12272117083D 1   1.00000     0.00000 
CORINA 4.3.0 0026  30.10.2019
 15 15  0  0  0  0  0  0  0  0999 V2000
  -37.6345    2.6077  -47.6706 C   0  0  0  0  0  0  0  0  0  0  0  0
  -36.5250    1.7068  -47.1247 C   0  0  0  0  0  0  0  0  0  0  0  0
  -35.5573    1.3479  -48.2542 C   0  0  0  0  0  0  0  0  0  0  0  0
  -37.1410    0.4272  -46.5551 C   0  0  0  0  0  0  0  0  0  0  0  0
  -35.8058    2.4064  -46.0752 O   0  0  0  0  0  0  0  0  0  0  0  0
  -36.5179    2.7950  -45.0006 C   0  0  0  0  0  0  0  0  0  0  0  0
  -37.7087    2.5603  -44.9437 O   0  0  0  0  0  0  0  0  0  0  0  0
  -35.9109    3.4490  -43.9906 N   0  0  0  0  0  0  0  0  0  0  0  0
  -36.7060    3.8519  -42.8511 C   0  0  0  0  0  0  0  0  0  0  0  0
  -37.2600    5.2799  -43.0853 C   0  0  0  0  0  0  0  0  0  0  0  0
  -36.1562    6.2575  -43.0320 C   0  0  0  0  0  0  0  0  0  0  0  0
  -35.1349    6.0717  -44.0624 N   0  0  0  0  0  0  0  0  0  0  0  0
  -34.1186    5.1442  -43.6122 C   0  0  0  0  0  0  0  0  0  0  0  0
  -34.4613    3.7177  -44.0933 C   0  0  0  0  0  0  0  0  0  0  0  0
  -34.4418    7.5679  -44.5151 X   0  0  0  0  0  0  0  0  0  0  0  0
  1  2  1  0  0  0  0
  2  3  1  0  0  0  0
  2  4  1  0  0  0  0
  2  5  1  0  0  0  0
  5  6  1  0  0  0  0
  6  7  2  0  0  0  0
  6  8  1  0  0  0  0
  8  9  1  0  0  0  0
  8 14  1  0  0  0  0
  9 10  1  0  0  0  0
 10 11  1  0  0  0  0
 11 12  1  0  0  0  0
 12 13  1  0  0  0  0
 12 15  1  0  0  0  0
 13 14  1  0  0  0  0
M  END
> <Index>
18627

> <PropertyFieldDistance>
nan

$$$$
4351190
BBcorina  12272117083D 1   1.00000     0.00000 
CORINA 4.3.0 0026  30.10.2019
 10 10  0  0  0  0  0  0  0  0999 V2000
  -35.6912    1.4386  -45.3949 C   0  0  0  0  0  0  0  0  0  0  0  0
  -36.6049    2.6492  -45.1929 C   0  0  0  0  0  0  0  0  0  0  0  0
  -36.0501    3.5112  -44.1407 N   0  0  0  0  0  0  0  0  0  0  0  0
  -37.0509    4.4991  -43.6824 C   0  0  0  0  0  0  0  0  0  0  0  0
  -36.7234    4.8884  -42.2628 C   0  0  0  0  0  0  0  0  0  0  0  0
  -35.8247    6.1336  -42.1975 C   0  0  0  0  0  0  0  0  0  0  0  0
  -34.7560    6.1145  -43.2224 N   0  0  0  0  0  0  0  0  0  0  0  0
  -34.1312    4.8218  -43.3916 C   0  0  0  0  0  0  0  0  0  0  0  0
  -34.8338    4.0754  -44.5437 C   0  0  0  0  0  0  0  0  0  0  0  0
  -33.5877    7.3239  -42.9121 X   0  0  0  0  0  0  0  0  0  0  0  0
  1  2  1  0  0  0  0
  2  3  1  0  0  0  0
  3  4  1  0  0  0  0
  3  9  1  0  0  0  0
  4  5  1  0  0  0  0
  5  6  1  0  0  0  0
  6  7  1  0  0  0  0
  7  8  1  0  0  0  0
  7 10  1  0  0  0  0
  8  9  1  0  0  0  0
M  END
> <Index>
18631

> <PropertyFieldDistance>
nan

$$$$
12206160
BBcorina  12272117083D 1   1.00000     0.00000 
CORINA 4.3.0 0026  30.10.2019
 12 12  0  0  0  0  0  0  0  0999 V2000
  -38.1038    2.2306  -45.3730 F   0  0  0  0  0  0  0  0  0  0  0  0
  -36.8490    1.6584  -45.6074 C   0  0  0  0  0  0  0  0  0  0  0  0
  -36.7874    1.1932  -46.9253 F   0  0  0  0  0  0  0  0  0  0  0  0
  -36.6517    0.5899  -44.7261 F   0  0  0  0  0  0  0  0  0  0  0  0
  -35.7596    2.7097  -45.3863 C   0  0  0  0  0  0  0  0  0  0  0  0
  -35.8243    3.1982  -44.0024 N   0  0  0  0  0  0  0  0  0  0  0  0
  -37.0460    4.0006  -43.7803 C   0  0  0  0  0  0  0  0  0  0  0  0
  -36.6262    5.0856  -42.7574 C   0  0  0  0  0  0  0  0  0  0  0  0
  -35.1786    5.4043  -43.2151 C   0  0  0  0  0  0  0  0  0  0  0  0
  -34.6508    4.0309  -43.6806 C   0  0  0  0  0  0  0  0  0  0  0  0
  -34.3795    5.9146  -42.0929 N   0  0  0  0  0  0  0  0  0  0  0  0
  -34.3452    7.6242  -42.0926 X   0  0  0  0  0  0  0  0  0  0  0  0
  1  2  1  0  0  0  0
  2  3  1  0  0  0  0
  2  4  1  0  0  0  0
  2  5  1  0  0  0  0
  5  6  1  0  0  0  0
  6  7  1  0  0  0  0
  6 10  1  0  0  0  0
  7  8  1  0  0  0  0
  8  9  1  0  0  0  0
  9 10  1  0  0  0  0
  9 11  1  0  0  0  0
 11 12  1  0  0  0  0
M  END
> <Index>
18644

> <PropertyFieldDistance>
nan

$$$$
11399524
BBcorina  12272117083D 1   1.00000     0.00000 
CORINA 4.3.0 0026  30.10.2019
 12 12  0  0  0  0  0  0  0  0999 V2000
  -35.1056    3.1854  -47.9089 C   0  0  0  0  0  0  0  0  0  0  0  0
  -35.0708    2.8240  -46.5269 O   0  0  0  0  0  0  0  0  0  0  0  0
  -36.3175    2.3435  -46.0201 C   0  0  0  0  0  0  0  0  0  0  0  0
  -36.1636    1.9885  -44.5398 C   0  0  0  0  0  0  0  0  0  0  0  0
  -35.8754    3.2070  -43.7715 N   0  0  0  0  0  0  0  0  0  0  0  0
  -37.0207    4.1259  -43.7932 C   0  0  0  0  0  0  0  0  0  0  0  0
  -36.7417    5.3123  -42.8675 C   0  0  0  0  0  0  0  0  0  0  0  0
  -35.4756    6.0337  -43.3380 C   0  0  0  0  0  0  0  0  0  0  0  0
  -34.3086    5.0426  -43.3526 C   0  0  0  0  0  0  0  0  0  0  0  0
  -34.6580    3.8640  -44.2642 C   0  0  0  0  0  0  0  0  0  0  0  0
  -33.1027    5.7124  -43.8577 N   0  0  0  0  0  0  0  0  0  0  0  0
  -32.2154    6.4222  -42.5798 X   0  0  0  0  0  0  0  0  0  0  0  0
  1  2  1  0  0  0  0
  2  3  1  0  0  0  0
  3  4  1  0  0  0  0
  4  5  1  0  0  0  0
  5  6  1  0  0  0  0
  5 10  1  0  0  0  0
  6  7  1  0  0  0  0
  7  8  1  0  0  0  0
  8  9  1  0  0  0  0
  9 10  1  0  0  0  0
  9 11  1  0  0  0  0
 11 12  1  0  0  0  0
M  END
> <Index>
18645

> <PropertyFieldDistance>
nan

$$$$
16645050
BBcorina  12272117083D 1   1.00000     0.00000 
CORINA 4.3.0 0026  30.10.2019
 10 10  0  0  0  0  0  0  0  0999 V2000
  -35.6095    5.4638  -43.2014 F   0  0  0  0  0  0  0  0  0  0  0  0
  -35.5998    4.0664  -43.1365 C   0  0  0  0  0  0  0  0  0  0  0  0
  -34.9438    3.6549  -41.9714 F   0  0  0  0  0  0  0  0  0  0  0  0
  -37.0397    3.5439  -43.1256 C   0  0  0  0  0  0  0  0  0  0  0  0
  -37.0189    2.0131  -43.1340 C   0  0  0  0  0  0  0  0  0  0  0  0
  -36.3015    1.5541  -44.2814 O   0  0  0  0  0  0  0  0  0  0  0  0
  -34.9356    1.9724  -44.3214 C   0  0  0  0  0  0  0  0  0  0  0  0
  -34.8727    3.5016  -44.3607 C   0  0  0  0  0  0  0  0  0  0  0  0
  -33.4694    3.9358  -44.3418 N   0  0  0  0  0  0  0  0  0  0  0  0
  -33.2921    5.4680  -45.0801 X   0  0  0  0  0  0  0  0  0  0  0  0
  1  2  1  0  0  0  0
  2  3  1  0  0  0  0
  2  4  1  0  0  0  0
  2  8  1  0  0  0  0
  4  5  1  0  0  0  0
  5  6  1  0  0  0  0
  6  7  1  0  0  0  0
  7  8  1  0  0  0  0
  8  9  1  0  0  0  0
  9 10  1  0  0  0  0
M  END
> <Index>
18648

> <PropertyFieldDistance>
nan

$$$$
13287820
BBcorina  12272117083D 1   1.00000     0.00000 
CORINA 4.3.0 0026  30.10.2019
 13 14  0  0  0  0  0  0  0  0999 V2000
  -35.7214    1.5891  -45.7499 C   0  0  0  0  0  0  0  0  0  0  0  0
  -36.6274    2.7488  -45.3314 C   0  0  0  0  0  0  0  0  0  0  0  0
  -36.1120    3.3511  -44.0947 N   0  0  0  0  0  0  0  0  0  0  0  0
  -37.0761    4.3073  -43.5329 C   0  0  0  0  0  0  0  0  0  0  0  0
  -36.5379    4.8515  -42.2076 C   0  0  0  0  0  0  0  0  0  0  0  0
  -35.2363    5.4941  -42.4375 N   0  0  0  0  0  0  0  0  0  0  0  0
  -34.2720    4.5379  -42.9992 C   0  0  0  0  0  0  0  0  0  0  0  0
  -34.8104    3.9937  -44.3246 C   0  0  0  0  0  0  0  0  0  0  0  0
  -34.7209    6.0964  -41.2007 C   0  0  0  0  0  0  0  0  0  0  0  0
  -33.3228    6.7227  -41.3525 C   0  0  0  0  0  0  0  0  0  0  0  0
  -33.8425    7.8392  -40.5324 N   0  0  0  0  0  0  0  0  0  0  0  0
  -35.2298    7.5273  -40.9496 C   0  0  0  0  0  0  0  0  0  0  0  0
  -33.3362    9.3475  -41.1593 X   0  0  0  0  0  0  0  0  0  0  0  0
  1  2  1  0  0  0  0
  2  3  1  0  0  0  0
  3  4  1  0  0  0  0
  3  8  1  0  0  0  0
  4  5  1  0  0  0  0
  5  6  1  0  0  0  0
  6  7  1  0  0  0  0
  6  9  1  0  0  0  0
  7  8  1  0  0  0  0
  9 10  1  0  0  0  0
  9 12  1  0  0  0  0
 10 11  1  0  0  0  0
 11 12  1  0  0  0  0
 11 13  1  0  0  0  0
M  END
> <Index>
18662

> <PropertyFieldDistance>
nan

$$$$
12421268
BBcorina  12272117083D 1   1.00000     0.00000 
CORINA 4.3.0 0026  30.10.2019
  9 10  0  0  0  0  0  0  0  0999 V2000
  -35.3962    7.4094  -43.2893 N   0  0  0  0  0  0  0  0  0  0  0  0
  -35.5581    5.9631  -43.4887 C   0  0  0  0  0  0  0  0  0  0  0  0
  -36.6660    5.2561  -42.6433 C   0  0  0  0  0  0  0  0  0  0  0  0
  -36.9499    3.9623  -43.4416 C   0  0  0  0  0  0  0  0  0  0  0  0
  -36.0213    4.0098  -44.6125 N   0  0  0  0  0  0  0  0  0  0  0  0
  -34.6523    3.7721  -44.0603 C   0  0  0  0  0  0  0  0  0  0  0  0
  -34.2978    5.0633  -43.2800 C   0  0  0  0  0  0  0  0  0  0  0  0
  -35.9831    5.4816  -44.9230 C   0  0  0  0  0  0  0  0  0  0  0  0
  -34.2748    8.0602  -44.4041 X   0  0  0  0  0  0  0  0  0  0  0  0
  1  2  1  0  0  0  0
  1  9  1  0  0  0  0
  2  3  1  0  0  0  0
  2  7  1  0  0  0  0
  2  8  1  0  0  0  0
  3  4  1  0  0  0  0
  4  5  1  0  0  0  0
  5  6  1  0  0  0  0
  5  8  1  0  0  0  0
  6  7  1  0  0  0  0
M  END
> <Index>
18673

> <PropertyFieldDistance>
nan

$$$$
13602144
BBcorina  12272117083D 1   1.00000     0.00000 
CORINA 4.3.0 0026  30.10.2019
 11 12  0  0  0  0  0  0  0  0999 V2000
  -36.8717    7.5004  -39.7442 C   0  0  0  0  0  0  0  0  0  0  0  0
  -36.4729    6.6002  -40.8851 C   0  0  0  0  0  0  0  0  0  0  0  0
  -37.3259    5.7390  -41.5881 C   0  0  0  0  0  0  0  0  0  0  0  0
  -36.5944    5.1118  -42.5272 C   0  0  0  0  0  0  0  0  0  0  0  0
  -37.0450    4.0915  -43.5424 C   0  0  0  0  0  0  0  0  0  0  0  0
  -35.9997    3.9829  -44.5756 N   0  0  0  0  0  0  0  0  0  0  0  0
  -34.6740    3.7930  -43.9703 C   0  0  0  0  0  0  0  0  0  0  0  0
  -34.2263    5.0911  -43.2865 C   0  0  0  0  0  0  0  0  0  0  0  0
  -35.3182    5.5561  -42.4255 N   0  0  0  0  0  0  0  0  0  0  0  0
  -35.2695    6.4926  -41.3942 N   0  0  0  0  0  0  0  0  0  0  0  0
  -36.3560    2.7251  -45.6780 X   0  0  0  0  0  0  0  0  0  0  0  0
  1  2  1  0  0  0  0
  2  3  1  0  0  0  0
  2 10  2  0  0  0  0
  3  4  2  0  0  0  0
  4  5  1  0  0  0  0
  4  9  1  0  0  0  0
  5  6  1  0  0  0  0
  6  7  1  0  0  0  0
  6 11  1  0  0  0  0
  7  8  1  0  0  0  0
  8  9  1  0  0  0  0
  9 10  1  0  0  0  0
M  END
> <Index>
18684

> <PropertyFieldDistance>
nan

$$$$
14249860
BBcorina  12272117083D 1   1.00000     0.00000 
CORINA 4.3.0 0026  30.10.2019
 11 12  0  0  0  0  0  0  0  0999 V2000
  -34.3307    1.7156  -42.0796 N   0  0  0  0  0  0  0  0  0  0  0  0
  -34.3259    1.7102  -43.5486 C   0  0  0  0  0  0  0  0  0  0  0  0
  -33.5353    2.9155  -44.0491 C   0  0  0  0  0  0  0  0  0  0  0  0
  -34.2338    4.2348  -43.6797 C   0  0  0  0  0  0  0  0  0  0  0  0
  -35.6270    4.1899  -44.2680 C   0  0  0  0  0  0  0  0  0  0  0  0
  -36.4609    5.3217  -44.1128 O   0  0  0  0  0  0  0  0  0  0  0  0
  -37.8344    4.8721  -44.1021 C   0  0  0  0  0  0  0  0  0  0  0  0
  -37.8133    3.3185  -44.1107 C   0  0  0  0  0  0  0  0  0  0  0  0
  -36.4001    3.0371  -43.5707 C   0  0  0  0  0  0  0  0  0  0  0  0
  -35.7764    1.7385  -44.0557 C   0  0  0  0  0  0  0  0  0  0  0  0
  -32.9670    0.8911  -41.4594 X   0  0  0  0  0  0  0  0  0  0  0  0
  1  2  1  0  0  0  0
  1 11  1  0  0  0  0
  2  3  1  0  0  0  0
  2 10  1  0  0  0  0
  3  4  1  0  0  0  0
  4  5  1  0  0  0  0
  5  6  1  0  0  0  0
  5  9  1  0  0  0  0
  6  7  1  0  0  0  0
  7  8  1  0  0  0  0
  8  9  1  0  0  0  0
  9 10  1  0  0  0  0
M  END
> <Index>
18686

> <PropertyFieldDistance>
nan

$$$$
13612240
BBcorina  12272117083D 1   1.00000     0.00000 
CORINA 4.3.0 0026  30.10.2019
 13 14  0  0  0  0  0  0  0  0999 V2000
  -35.5893    1.5778  -45.5692 C   0  0  0  0  0  0  0  0  0  0  0  0
  -36.5466    2.4168  -44.7626 C   0  0  0  0  0  0  0  0  0  0  0  0
  -37.6389    1.9784  -44.4701 O   0  0  0  0  0  0  0  0  0  0  0  0
  -36.1889    3.6543  -44.3663 N   0  0  0  0  0  0  0  0  0  0  0  0
  -37.1551    4.5272  -43.6865 C   0  0  0  0  0  0  0  0  0  0  0  0
  -36.5608    4.9691  -42.3438 C   0  0  0  0  0  0  0  0  0  0  0  0
  -35.1730    5.5593  -42.5815 C   0  0  0  0  0  0  0  0  0  0  0  0
  -35.2007    6.9540  -43.2224 C   0  0  0  0  0  0  0  0  0  0  0  0
  -34.1254    7.3023  -42.2666 N   0  0  0  0  0  0  0  0  0  0  0  0
  -34.5722    6.2360  -41.3419 C   0  0  0  0  0  0  0  0  0  0  0  0
  -34.2175    4.5892  -43.2721 C   0  0  0  0  0  0  0  0  0  0  0  0
  -34.8274    4.1495  -44.6084 C   0  0  0  0  0  0  0  0  0  0  0  0
  -34.3859    8.8503  -41.5884 X   0  0  0  0  0  0  0  0  0  0  0  0
  1  2  1  0  0  0  0
  2  3  2  0  0  0  0
  2  4  1  0  0  0  0
  4  5  1  0  0  0  0
  4 12  1  0  0  0  0
  5  6  1  0  0  0  0
  6  7  1  0  0  0  0
  7  8  1  0  0  0  0
  7 10  1  0  0  0  0
  7 11  1  0  0  0  0
  8  9  1  0  0  0  0
  9 10  1  0  0  0  0
  9 13  1  0  0  0  0
 11 12  1  0  0  0  0
M  END
> <Index>
18700

> <PropertyFieldDistance>
nan

$$$$
9047692
BBcorina  12272117083D 1   1.00000     0.00000 
CORINA 4.3.0 0026  30.10.2019
 16 16  0  0  0  0  0  0  0  0999 V2000
  -36.7671   -0.0247  -46.2538 C   0  0  0  0  0  0  0  0  0  0  0  0
  -35.7296    0.0093  -45.1299 C   0  0  0  0  0  0  0  0  0  0  0  0
  -34.5030   -0.8064  -45.5432 C   0  0  0  0  0  0  0  0  0  0  0  0
  -36.3350   -0.5888  -43.8585 C   0  0  0  0  0  0  0  0  0  0  0  0
  -35.3343    1.3835  -44.8776 O   0  0  0  0  0  0  0  0  0  0  0  0
  -36.3034    2.2391  -44.5013 C   0  0  0  0  0  0  0  0  0  0  0  0
  -37.4482    1.8481  -44.3869 O   0  0  0  0  0  0  0  0  0  0  0  0
  -36.0039    3.5292  -44.2516 N   0  0  0  0  0  0  0  0  0  0  0  0
  -37.0404    4.4912  -43.8380 C   0  0  0  0  0  0  0  0  0  0  0  0
  -36.6742    5.0064  -42.4435 C   0  0  0  0  0  0  0  0  0  0  0  0
  -35.2176    5.3582  -42.3820 C   0  0  0  0  0  0  0  0  0  0  0  0
  -34.3226    4.9328  -43.2149 C   0  0  0  0  0  0  0  0  0  0  0  0
  -34.6303    4.0391  -44.3838 C   0  0  0  0  0  0  0  0  0  0  0  0
  -34.7639    6.2707  -41.2718 C   0  0  0  0  0  0  0  0  0  0  0  0
  -34.9597    7.6692  -41.6766 N   0  0  0  0  0  0  0  0  0  0  0  0
  -34.4564    8.7407  -40.4427 X   0  0  0  0  0  0  0  0  0  0  0  0
  1  2  1  0  0  0  0
  2  3  1  0  0  0  0
  2  4  1  0  0  0  0
  2  5  1  0  0  0  0
  5  6  1  0  0  0  0
  6  7  2  0  0  0  0
  6  8  1  0  0  0  0
  8  9  1  0  0  0  0
  8 13  1  0  0  0  0
  9 10  1  0  0  0  0
 10 11  1  0  0  0  0
 11 12  2  0  0  0  0
 11 14  1  0  0  0  0
 12 13  1  0  0  0  0
 14 15  1  0  0  0  0
 15 16  1  0  0  0  0
M  END
> <Index>
18708

> <PropertyFieldDistance>
nan

$$$$
13968876
BBcorina  12272117083D 1   1.00000     0.00000 
CORINA 4.3.0 0026  30.10.2019
  9  9  0  0  0  0  0  0  0  0999 V2000
  -34.9728    6.5142  -41.4836 O   0  0  0  0  0  0  0  0  0  0  0  0
  -35.3535    5.8833  -42.7079 C   0  0  0  0  0  0  0  0  0  0  0  0
  -36.6585    5.1099  -42.5008 C   0  0  0  0  0  0  0  0  0  0  0  0
  -37.0291    4.3869  -43.7977 C   0  0  0  0  0  0  0  0  0  0  0  0
  -35.9480    3.4664  -44.1723 N   0  0  0  0  0  0  0  0  0  0  0  0
  -34.6958    4.1916  -44.4226 C   0  0  0  0  0  0  0  0  0  0  0  0
  -34.2559    4.9088  -43.1442 C   0  0  0  0  0  0  0  0  0  0  0  0
  -36.3238    2.6626  -45.3242 N   0  0  0  0  0  0  0  0  0  0  0  0
  -36.4061    1.0046  -44.9138 X   0  0  0  0  0  0  0  0  0  0  0  0
  1  2  1  0  0  0  0
  2  3  1  0  0  0  0
  2  7  1  0  0  0  0
  3  4  1  0  0  0  0
  4  5  1  0  0  0  0
  5  6  1  0  0  0  0
  5  8  1  0  0  0  0
  6  7  1  0  0  0  0
  8  9  1  0  0  0  0
M  END
> <Index>
18721

> <PropertyFieldDistance>
nan

$$$$
13974402
BBcorina  12272117083D 1   1.00000     0.00000 
CORINA 4.3.0 0026  30.10.2019
 10 11  0  0  0  0  0  0  0  0999 V2000
  -35.9512    3.4658  -44.1726 N   0  0  0  0  0  0  0  0  0  0  0  0
  -37.0152    4.4086  -43.8055 C   0  0  0  0  0  0  0  0  0  0  0  0
  -36.6646    5.0973  -42.4848 C   0  0  0  0  0  0  0  0  0  0  0  0
  -35.3562    5.8779  -42.6558 C   0  0  0  0  0  0  0  0  0  0  0  0
  -34.2741    4.9249  -43.1574 C   0  0  0  0  0  0  0  0  0  0  0  0
  -32.8807    5.5629  -43.2434 C   0  0  0  0  0  0  0  0  0  0  0  0
  -32.4095    4.3321  -42.6562 O   0  0  0  0  0  0  0  0  0  0  0  0
  -33.6871    4.0266  -42.0595 C   0  0  0  0  0  0  0  0  0  0  0  0
  -34.6822    4.1670  -44.4173 C   0  0  0  0  0  0  0  0  0  0  0  0
  -36.4045    2.5278  -45.5286 X   0  0  0  0  0  0  0  0  0  0  0  0
  1  2  1  0  0  0  0
  1  9  1  0  0  0  0
  1 10  1  0  0  0  0
  2  3  1  0  0  0  0
  3  4  1  0  0  0  0
  4  5  1  0  0  0  0
  5  6  1  0  0  0  0
  5  8  1  0  0  0  0
  5  9  1  0  0  0  0
  6  7  1  0  0  0  0
  7  8  1  0  0  0  0
M  END
> <Index>
18726

> <PropertyFieldDistance>
nan

$$$$
14156148
BBcorina  12272117083D 1   1.00000     0.00000 
CORINA 4.3.0 0026  30.10.2019
 14 15  0  0  0  0  0  0  0  0999 V2000
  -35.7238   -0.5036  -46.7897 N   0  0  0  0  0  0  0  0  0  0  0  0
  -36.2051    0.6188  -46.1407 C   0  0  0  0  0  0  0  0  0  0  0  0
  -35.5424    1.3555  -45.2744 N   0  0  0  0  0  0  0  0  0  0  0  0
  -36.3200    2.3568  -44.8478 C   0  0  0  0  0  0  0  0  0  0  0  0
  -37.4848    2.2748  -45.4437 N   0  0  0  0  0  0  0  0  0  0  0  0
  -37.4347    1.1542  -46.2883 N   0  0  0  0  0  0  0  0  0  0  0  0
  -35.9492    3.3340  -43.9229 N   0  0  0  0  0  0  0  0  0  0  0  0
  -37.0463    4.2821  -43.6907 C   0  0  0  0  0  0  0  0  0  0  0  0
  -36.6584    5.2483  -42.5691 C   0  0  0  0  0  0  0  0  0  0  0  0
  -35.3852    5.9999  -42.9673 C   0  0  0  0  0  0  0  0  0  0  0  0
  -34.2718    4.9876  -43.2504 C   0  0  0  0  0  0  0  0  0  0  0  0
  -34.7289    4.0289  -44.3522 C   0  0  0  0  0  0  0  0  0  0  0  0
  -34.9752    6.8866  -41.8701 N   0  0  0  0  0  0  0  0  0  0  0  0
  -34.6614    5.9940  -40.4456 X   0  0  0  0  0  0  0  0  0  0  0  0
  1  2  1  0  0  0  0
  2  3  2  0  0  0  0
  2  6  1  0  0  0  0
  3  4  1  0  0  0  0
  4  5  2  0  0  0  0
  4  7  1  0  0  0  0
  5  6  1  0  0  0  0
  7  8  1  0  0  0  0
  7 12  1  0  0  0  0
  8  9  1  0  0  0  0
  9 10  1  0  0  0  0
 10 11  1  0  0  0  0
 10 13  1  0  0  0  0
 11 12  1  0  0  0  0
 13 14  1  0  0  0  0
M  END
> <Index>
18736

> <PropertyFieldDistance>
nan

$$$$
13913926
BBcorina  12272117083D 1   1.00000     0.00000 
CORINA 4.3.0 0026  30.10.2019
 12 13  0  0  0  0  0  0  0  0999 V2000
  -33.6170    7.0066  -41.2853 C   0  0  0  0  0  0  0  0  0  0  0  0
  -34.9675    6.8860  -41.8505 N   0  0  0  0  0  0  0  0  0  0  0  0
  -35.2385    5.5066  -42.2767 C   0  0  0  0  0  0  0  0  0  0  0  0
  -36.6923    5.3915  -42.7433 C   0  0  0  0  0  0  0  0  0  0  0  0
  -36.9515    3.9683  -43.2428 C   0  0  0  0  0  0  0  0  0  0  0  0
  -36.0372    3.6632  -44.3507 N   0  0  0  0  0  0  0  0  0  0  0  0
  -34.6363    3.7209  -43.9147 C   0  0  0  0  0  0  0  0  0  0  0  0
  -34.3081    5.1367  -43.4352 C   0  0  0  0  0  0  0  0  0  0  0  0
  -36.3493    2.3571  -44.9464 C   0  0  0  0  0  0  0  0  0  0  0  0
  -35.5618    1.9419  -46.1907 C   0  0  0  0  0  0  0  0  0  0  0  0
  -35.2843    1.2631  -44.8479 C   0  0  0  0  0  0  0  0  0  0  0  0
  -35.1906    7.9820  -43.1440 X   0  0  0  0  0  0  0  0  0  0  0  0
  1  2  1  0  0  0  0
  2  3  1  0  0  0  0
  2 12  1  0  0  0  0
  3  4  1  0  0  0  0
  3  8  1  0  0  0  0
  4  5  1  0  0  0  0
  5  6  1  0  0  0  0
  6  7  1  0  0  0  0
  6  9  1  0  0  0  0
  7  8  1  0  0  0  0
  9 10  1  0  0  0  0
  9 11  1  0  0  0  0
 10 11  1  0  0  0  0
M  END
> <Index>
18761

> <PropertyFieldDistance>
nan

$$$$
14055354
BBcorina  12272117083D 1   1.00000     0.00000 
CORINA 4.3.0 0026  30.10.2019
  8  8  0  0  0  0  0  0  0  0999 V2000
  -35.1825    1.8516  -42.3894 N   0  0  0  0  0  0  0  0  0  0  0  0
  -35.9664    2.3737  -43.5168 C   0  0  0  0  0  0  0  0  0  0  0  0
  -35.2888    2.0150  -44.8577 C   0  0  0  0  0  0  0  0  0  0  0  0
  -35.4974    3.1795  -45.6877 O   0  0  0  0  0  0  0  0  0  0  0  0
  -35.3114    4.3033  -44.8001 C   0  0  0  0  0  0  0  0  0  0  0  0
  -35.9789    3.8944  -43.4967 C   0  0  0  0  0  0  0  0  0  0  0  0
  -36.4586    4.6783  -42.5632 C   0  0  0  0  0  0  0  0  0  0  0  0
  -33.5946    2.4861  -42.4012 X   0  0  0  0  0  0  0  0  0  0  0  0
  1  2  1  0  0  0  0
  1  8  1  0  0  0  0
  2  3  1  0  0  0  0
  2  6  1  0  0  0  0
  3  4  1  0  0  0  0
  4  5  1  0  0  0  0
  5  6  1  0  0  0  0
  6  7  2  0  0  0  0
M  END
> <Index>
18763

> <PropertyFieldDistance>
nan

$$$$
14316714
BBcorina  12272117083D 1   1.00000     0.00000 
CORINA 4.3.0 0026  30.10.2019
 11 12  0  0  0  0  0  0  0  0999 V2000
  -33.5681    6.4646  -40.5864 C   0  0  0  0  0  0  0  0  0  0  0  0
  -34.9272    6.4334  -41.2882 C   0  0  0  0  0  0  0  0  0  0  0  0
  -36.0361    7.1912  -40.7030 N   0  0  0  0  0  0  0  0  0  0  0  0
  -35.5267    7.7012  -41.7120 N   0  0  0  0  0  0  0  0  0  0  0  0
  -35.2463    5.1684  -42.0875 C   0  0  0  0  0  0  0  0  0  0  0  0
  -36.6796    5.2477  -42.6204 C   0  0  0  0  0  0  0  0  0  0  0  0
  -36.9723    4.0084  -43.4693 C   0  0  0  0  0  0  0  0  0  0  0  0
  -36.0194    3.9412  -44.5845 N   0  0  0  0  0  0  0  0  0  0  0  0
  -34.6397    3.8168  -44.0973 C   0  0  0  0  0  0  0  0  0  0  0  0
  -34.2763    5.0495  -43.2662 C   0  0  0  0  0  0  0  0  0  0  0  0
  -36.4110    2.6614  -45.6490 X   0  0  0  0  0  0  0  0  0  0  0  0
  1  2  1  0  0  0  0
  2  3  1  0  0  0  0
  2  4  1  0  0  0  0
  2  5  1  0  0  0  0
  3  4  2  0  0  0  0
  5  6  1  0  0  0  0
  5 10  1  0  0  0  0
  6  7  1  0  0  0  0
  7  8  1  0  0  0  0
  8  9  1  0  0  0  0
  8 11  1  0  0  0  0
  9 10  1  0  0  0  0
M  END
> <Index>
18768

> <PropertyFieldDistance>
nan

$$$$
14243890
BBcorina  12272117083D 1   1.00000     0.00000 
CORINA 4.3.0 0026  30.10.2019
 11 12  0  0  0  0  0  0  0  0999 V2000
  -37.3676    7.0443  -40.9455 C   0  0  0  0  0  0  0  0  0  0  0  0
  -37.6835    6.1406  -42.1390 C   0  0  0  0  0  0  0  0  0  0  0  0
  -39.0846    5.8251  -42.4282 N   0  0  0  0  0  0  0  0  0  0  0  0
  -38.5644    6.6520  -43.1919 N   0  0  0  0  0  0  0  0  0  0  0  0
  -36.6101    5.1169  -42.5144 C   0  0  0  0  0  0  0  0  0  0  0  0
  -37.0250    4.3873  -43.7948 C   0  0  0  0  0  0  0  0  0  0  0  0
  -35.9555    3.4606  -44.1930 N   0  0  0  0  0  0  0  0  0  0  0  0
  -34.6941    4.1836  -44.4110 C   0  0  0  0  0  0  0  0  0  0  0  0
  -34.3026    4.9152  -43.1244 C   0  0  0  0  0  0  0  0  0  0  0  0
  -35.3665    5.7879  -42.7347 O   0  0  0  0  0  0  0  0  0  0  0  0
  -36.4010    2.5722  -45.5845 X   0  0  0  0  0  0  0  0  0  0  0  0
  1  2  1  0  0  0  0
  2  3  1  0  0  0  0
  2  4  1  0  0  0  0
  2  5  1  0  0  0  0
  3  4  2  0  0  0  0
  5  6  1  0  0  0  0
  5 10  1  0  0  0  0
  6  7  1  0  0  0  0
  7  8  1  0  0  0  0
  7 11  1  0  0  0  0
  8  9  1  0  0  0  0
  9 10  1  0  0  0  0
M  END
> <Index>
18769

> <PropertyFieldDistance>
nan

$$$$
16506330
BBcorina  12272117083D 1   1.00000     0.00000 
CORINA 4.3.0 0026  30.10.2019
 14 15  0  0  0  0  0  0  0  0999 V2000
  -36.3389    2.2589  -44.8254 C   0  0  0  0  0  0  0  0  0  0  0  0
  -35.9673    3.5252  -44.1892 N   0  0  0  0  0  0  0  0  0  0  0  0
  -37.0170    4.3976  -43.6766 C   0  0  0  0  0  0  0  0  0  0  0  0
  -36.6350    5.0702  -42.3592 C   0  0  0  0  0  0  0  0  0  0  0  0
  -35.2858    5.6347  -42.4776 N   0  0  0  0  0  0  0  0  0  0  0  0
  -34.7716    6.6536  -41.9088 N   0  0  0  0  0  0  0  0  0  0  0  0
  -33.5261    6.8241  -42.2871 C   0  0  0  0  0  0  0  0  0  0  0  0
  -33.2072    5.8057  -43.1957 C   0  0  0  0  0  0  0  0  0  0  0  0
  -31.8942    5.5840  -43.9014 C   0  0  0  0  0  0  0  0  0  0  0  0
  -31.9805    6.1065  -45.2716 N   0  0  0  0  0  0  0  0  0  0  0  0
  -34.3448    5.0578  -43.3022 C   0  0  0  0  0  0  0  0  0  0  0  0
  -34.6561    3.8562  -44.0926 C   0  0  0  0  0  0  0  0  0  0  0  0
  -33.7864    3.1999  -44.6329 O   0  0  0  0  0  0  0  0  0  0  0  0
  -30.5081    5.8746  -46.1097 X   0  0  0  0  0  0  0  0  0  0  0  0
  1  2  1  0  0  0  0
  2  3  1  0  0  0  0
  2 12  1  0  0  0  0
  3  4  1  0  0  0  0
  4  5  1  0  0  0  0
  5  6  1  0  0  0  0
  5 11  1  0  0  0  0
  6  7  2  0  0  0  0
  7  8  1  0  0  0  0
  8  9  1  0  0  0  0
  8 11  2  0  0  0  0
  9 10  1  0  0  0  0
 10 14  1  0  0  0  0
 11 12  1  0  0  0  0
 12 13  2  0  0  0  0
M  END
> <Index>
18776

> <PropertyFieldDistance>
nan

$$$$
9439524
BBcorina  12272117083D 1   1.00000     0.00000 
CORINA 4.3.0 0026  30.10.2019
 12 13  0  0  0  0  0  0  0  0999 V2000
  -36.4674    2.1994  -44.9255 C   0  0  0  0  0  0  0  0  0  0  0  0
  -36.2418    3.3770  -44.0838 N   0  0  0  0  0  0  0  0  0  0  0  0
  -37.2952    4.2370  -43.5191 C   0  0  0  0  0  0  0  0  0  0  0  0
  -36.5189    5.2642  -42.6806 C   0  0  0  0  0  0  0  0  0  0  0  0
  -36.8239    6.6905  -43.1487 C   0  0  0  0  0  0  0  0  0  0  0  0
  -35.8107    7.5963  -42.5864 N   0  0  0  0  0  0  0  0  0  0  0  0
  -34.4655    7.3183  -43.1022 C   0  0  0  0  0  0  0  0  0  0  0  0
  -34.0211    5.9128  -42.6680 C   0  0  0  0  0  0  0  0  0  0  0  0
  -35.1065    4.9887  -43.0265 N   0  0  0  0  0  0  0  0  0  0  0  0
  -35.0416    3.8437  -43.7042 C   0  0  0  0  0  0  0  0  0  0  0  0
  -33.9961    3.2761  -43.9551 O   0  0  0  0  0  0  0  0  0  0  0  0
  -36.2400    9.2314  -42.8438 X   0  0  0  0  0  0  0  0  0  0  0  0
  1  2  1  0  0  0  0
  2  3  1  0  0  0  0
  2 10  1  0  0  0  0
  3  4  1  0  0  0  0
  4  5  1  0  0  0  0
  4  9  1  0  0  0  0
  5  6  1  0  0  0  0
  6  7  1  0  0  0  0
  6 12  1  0  0  0  0
  7  8  1  0  0  0  0
  8  9  1  0  0  0  0
  9 10  1  0  0  0  0
 10 11  2  0  0  0  0
M  END
> <Index>
18777

> <PropertyFieldDistance>
nan

$$$$
14316722
BBcorina  12272117083D 1   1.00000     0.00000 
CORINA 4.3.0 0026  30.10.2019
 10 11  0  0  0  0  0  0  0  0999 V2000
  -36.3391    2.2063  -44.6326 C   0  0  0  0  0  0  0  0  0  0  0  0
  -36.0665    3.6474  -44.5502 N   0  0  0  0  0  0  0  0  0  0  0  0
  -37.1365    4.3683  -43.7650 C   0  0  0  0  0  0  0  0  0  0  0  0
  -36.2476    4.8965  -42.5868 C   0  0  0  0  0  0  0  0  0  0  0  0
  -34.9964    5.4180  -43.3415 C   0  0  0  0  0  0  0  0  0  0  0  0
  -34.8553    3.9187  -43.7038 C   0  0  0  0  0  0  0  0  0  0  0  0
  -33.5085    3.3711  -44.1802 C   0  0  0  0  0  0  0  0  0  0  0  0
  -33.6349    1.9342  -44.4580 N   0  0  0  0  0  0  0  0  0  0  0  0
  -35.2565    3.7529  -42.2085 C   0  0  0  0  0  0  0  0  0  0  0  0
  -32.1484    1.2808  -44.9945 X   0  0  0  0  0  0  0  0  0  0  0  0
  1  2  1  0  0  0  0
  2  3  1  0  0  0  0
  2  6  1  0  0  0  0
  3  4  1  0  0  0  0
  4  5  1  0  0  0  0
  4  9  1  0  0  0  0
  5  6  1  0  0  0  0
  6  7  1  0  0  0  0
  6  9  1  0  0  0  0
  7  8  1  0  0  0  0
  8 10  1  0  0  0  0
M  END
> <Index>
18807

> <PropertyFieldDistance>
nan

$$$$
14174270
BBcorina  12272117083D 1   1.00000     0.00000 
CORINA 4.3.0 0026  30.10.2019
 11 12  0  0  0  0  0  0  0  0999 V2000
  -34.0670    7.2280  -40.9416 C   0  0  0  0  0  0  0  0  0  0  0  0
  -35.2769    6.4663  -41.4179 C   0  0  0  0  0  0  0  0  0  0  0  0
  -36.5301    6.5543  -40.9255 C   0  0  0  0  0  0  0  0  0  0  0  0
  -37.3128    5.7145  -41.6238 N   0  0  0  0  0  0  0  0  0  0  0  0
  -36.5975    5.1134  -42.5251 C   0  0  0  0  0  0  0  0  0  0  0  0
  -37.0441    4.0902  -43.5420 C   0  0  0  0  0  0  0  0  0  0  0  0
  -35.9993    3.9845  -44.5752 N   0  0  0  0  0  0  0  0  0  0  0  0
  -34.6730    3.7928  -43.9717 C   0  0  0  0  0  0  0  0  0  0  0  0
  -34.2257    5.0902  -43.2861 C   0  0  0  0  0  0  0  0  0  0  0  0
  -35.3180    5.5554  -42.4275 N   0  0  0  0  0  0  0  0  0  0  0  0
  -36.3562    2.7302  -45.6815 X   0  0  0  0  0  0  0  0  0  0  0  0
  1  2  1  0  0  0  0
  2  3  2  0  0  0  0
  2 10  1  0  0  0  0
  3  4  1  0  0  0  0
  4  5  2  0  0  0  0
  5  6  1  0  0  0  0
  5 10  1  0  0  0  0
  6  7  1  0  0  0  0
  7  8  1  0  0  0  0
  7 11  1  0  0  0  0
  8  9  1  0  0  0  0
  9 10  1  0  0  0  0
M  END
> <Index>
18808

> <PropertyFieldDistance>
nan

$$$$
13616740
BBcorina  12272117083D 1   1.00000     0.00000 
CORINA 4.3.0 0026  30.10.2019
 11 12  0  0  0  0  0  0  0  0999 V2000
  -35.9612    3.7327  -44.3388 N   0  0  0  0  0  0  0  0  0  0  0  0
  -36.7535    3.9201  -43.1271 C   0  0  0  0  0  0  0  0  0  0  0  0
  -37.1679    5.3716  -42.9275 C   0  0  0  0  0  0  0  0  0  0  0  0
  -36.0037    6.3378  -43.0983 C   0  0  0  0  0  0  0  0  0  0  0  0
  -35.0233    6.2563  -41.9374 C   0  0  0  0  0  0  0  0  0  0  0  0
  -34.3164    4.9095  -41.8617 C   0  0  0  0  0  0  0  0  0  0  0  0
  -33.9036    4.4171  -43.2235 C   0  0  0  0  0  0  0  0  0  0  0  0
  -32.8362    3.8484  -43.3622 O   0  0  0  0  0  0  0  0  0  0  0  0
  -34.8011    4.6221  -44.4208 C   0  0  0  0  0  0  0  0  0  0  0  0
  -35.2856    6.0766  -44.4224 C   0  0  0  0  0  0  0  0  0  0  0  0
  -35.5092    2.0964  -44.5444 X   0  0  0  0  0  0  0  0  0  0  0  0
  1  2  1  0  0  0  0
  1  9  1  0  0  0  0
  1 11  1  0  0  0  0
  2  3  1  0  0  0  0
  3  4  1  0  0  0  0
  4  5  1  0  0  0  0
  4 10  1  0  0  0  0
  5  6  1  0  0  0  0
  6  7  1  0  0  0  0
  7  8  2  0  0  0  0
  7  9  1  0  0  0  0
  9 10  1  0  0  0  0
M  END
> <Index>
18820

> <PropertyFieldDistance>
nan

$$$$
14244658
BBcorina  12272117083D 1   1.00000     0.00000 
CORINA 4.3.0 0026  30.10.2019
 11 11  0  0  0  0  0  0  0  0999 V2000
  -34.5071    6.3371  -43.3618 C   0  0  0  0  0  0  0  0  0  0  0  0
  -34.9122    4.9759  -42.7925 C   0  0  0  0  0  0  0  0  0  0  0  0
  -34.1115    4.6537  -41.5292 C   0  0  0  0  0  0  0  0  0  0  0  0
  -36.4320    4.9231  -42.5129 C   0  0  0  0  0  0  0  0  0  0  0  0
  -37.0211    4.3323  -43.7749 C   0  0  0  0  0  0  0  0  0  0  0  0
  -38.1936    4.3775  -44.0814 O   0  0  0  0  0  0  0  0  0  0  0  0
  -36.0557    3.7503  -44.5072 N   0  0  0  0  0  0  0  0  0  0  0  0
  -34.7488    3.8574  -43.8480 C   0  0  0  0  0  0  0  0  0  0  0  0
  -34.3872    2.5339  -43.1710 C   0  0  0  0  0  0  0  0  0  0  0  0
  -34.4134    1.4523  -44.1648 N   0  0  0  0  0  0  0  0  0  0  0  0
  -34.0141   -0.0481  -43.4482 X   0  0  0  0  0  0  0  0  0  0  0  0
  1  2  1  0  0  0  0
  2  3  1  0  0  0  0
  2  4  1  0  0  0  0
  2  8  1  0  0  0  0
  4  5  1  0  0  0  0
  5  6  2  0  0  0  0
  5  7  1  0  0  0  0
  7  8  1  0  0  0  0
  8  9  1  0  0  0  0
  9 10  1  0  0  0  0
 10 11  1  0  0  0  0
M  END
> <Index>
18830

> <PropertyFieldDistance>
nan

$$$$
14174256
BBcorina  12272117083D 1   1.00000     0.00000 
CORINA 4.3.0 0026  30.10.2019
 12 12  0  0  0  0  0  0  0  0999 V2000
  -34.9874    5.8301  -40.8936 C   0  0  0  0  0  0  0  0  0  0  0  0
  -35.3461    5.0445  -42.1286 C   0  0  0  0  0  0  0  0  0  0  0  0
  -36.6531    4.8665  -42.4679 C   0  0  0  0  0  0  0  0  0  0  0  0
  -36.9537    4.1316  -43.6333 C   0  0  0  0  0  0  0  0  0  0  0  0
  -38.1108    3.9533  -43.9762 O   0  0  0  0  0  0  0  0  0  0  0  0
  -35.9338    3.6253  -44.3589 N   0  0  0  0  0  0  0  0  0  0  0  0
  -36.2097    2.8521  -45.5722 C   0  0  0  0  0  0  0  0  0  0  0  0
  -36.3440    1.3709  -45.2135 C   0  0  0  0  0  0  0  0  0  0  0  0
  -36.6207    0.5956  -46.4303 N   0  0  0  0  0  0  0  0  0  0  0  0
  -34.6615    3.8368  -43.9685 C   0  0  0  0  0  0  0  0  0  0  0  0
  -34.3830    4.5223  -42.8919 N   0  0  0  0  0  0  0  0  0  0  0  0
  -36.7785   -1.0693  -46.0733 X   0  0  0  0  0  0  0  0  0  0  0  0
  1  2  1  0  0  0  0
  2  3  2  0  0  0  0
  2 11  1  0  0  0  0
  3  4  1  0  0  0  0
  4  5  2  0  0  0  0
  4  6  1  0  0  0  0
  6  7  1  0  0  0  0
  6 10  1  0  0  0  0
  7  8  1  0  0  0  0
  8  9  1  0  0  0  0
  9 12  1  0  0  0  0
 10 11  2  0  0  0  0
M  END
> <Index>
18842

> <PropertyFieldDistance>
nan

$$$$
13596722
BBcorina  12272117083D 1   1.00000     0.00000 
CORINA 4.3.0 0026  30.10.2019
 12 13  0  0  0  0  0  0  0  0999 V2000
  -36.0047    3.6175  -44.3782 N   0  0  0  0  0  0  0  0  0  0  0  0
  -37.0057    4.4935  -43.7534 C   0  0  0  0  0  0  0  0  0  0  0  0
  -36.5670    4.8279  -42.3257 C   0  0  0  0  0  0  0  0  0  0  0  0
  -35.2500    5.4789  -42.3606 N   0  0  0  0  0  0  0  0  0  0  0  0
  -34.2491    4.6028  -42.9852 C   0  0  0  0  0  0  0  0  0  0  0  0
  -34.6877    4.2685  -44.4129 C   0  0  0  0  0  0  0  0  0  0  0  0
  -34.8519    5.8607  -41.0914 C   0  0  0  0  0  0  0  0  0  0  0  0
  -35.5255    5.6858  -39.9760 N   0  0  0  0  0  0  0  0  0  0  0  0
  -34.8706    6.1562  -38.9764 N   0  0  0  0  0  0  0  0  0  0  0  0
  -33.7504    6.6574  -39.3711 N   0  0  0  0  0  0  0  0  0  0  0  0
  -33.6934    6.4788  -40.7645 N   0  0  0  0  0  0  0  0  0  0  0  0
  -36.4967    3.1457  -45.9464 X   0  0  0  0  0  0  0  0  0  0  0  0
  1  2  1  0  0  0  0
  1  6  1  0  0  0  0
  1 12  1  0  0  0  0
  2  3  1  0  0  0  0
  3  4  1  0  0  0  0
  4  5  1  0  0  0  0
  4  7  1  0  0  0  0
  5  6  1  0  0  0  0
  7  8  2  0  0  0  0
  7 11  1  0  0  0  0
  8  9  1  0  0  0  0
  9 10  2  0  0  0  0
 10 11  1  0  0  0  0
M  END
> <Index>
18854

> <PropertyFieldDistance>
nan

$$$$
13654870
BBcorina  12272117083D 1   1.00000     0.00000 
CORINA 4.3.0 0026  30.10.2019
 11 12  0  0  0  0  0  0  0  0999 V2000
  -36.0172    3.5927  -44.4913 N   0  0  0  0  0  0  0  0  0  0  0  0
  -36.3934    2.1751  -44.5752 C   0  0  0  0  0  0  0  0  0  0  0  0
  -36.1059    1.6538  -45.9847 C   0  0  0  0  0  0  0  0  0  0  0  0
  -36.4797    0.1565  -46.1491 C   0  0  0  0  0  0  0  0  0  0  0  0
  -36.5310    0.0680  -47.7015 C   0  0  0  0  0  0  0  0  0  0  0  0
  -37.1529    1.4358  -48.0734 C   0  0  0  0  0  0  0  0  0  0  0  0
  -36.8828    2.3330  -46.9893 O   0  0  0  0  0  0  0  0  0  0  0  0
  -34.6195    1.7802  -46.3622 C   0  0  0  0  0  0  0  0  0  0  0  0
  -34.4708    1.4666  -47.8672 C   0  0  0  0  0  0  0  0  0  0  0  0
  -35.0682    0.0934  -48.1834 C   0  0  0  0  0  0  0  0  0  0  0  0
  -36.3229    4.2163  -42.9286 X   0  0  0  0  0  0  0  0  0  0  0  0
  1  2  1  0  0  0  0
  1 11  1  0  0  0  0
  2  3  1  0  0  0  0
  3  4  1  0  0  0  0
  3  7  1  0  0  0  0
  3  8  1  0  0  0  0
  4  5  1  0  0  0  0
  5  6  1  0  0  0  0
  5 10  1  0  0  0  0
  6  7  1  0  0  0  0
  8  9  1  0  0  0  0
  9 10  1  0  0  0  0
M  END
> <Index>
18857

> <PropertyFieldDistance>
nan

$$$$
14055570
BBcorina  12272117083D 1   1.00000     0.00000 
CORINA 4.3.0 0026  30.10.2019
 10 11  0  0  0  0  0  0  0  0999 V2000
  -34.2384    3.8579  -42.5456 C   0  0  0  0  0  0  0  0  0  0  0  0
  -34.3277    2.5947  -43.4042 C   0  0  0  0  0  0  0  0  0  0  0  0
  -33.1431    1.6334  -43.2879 C   0  0  0  0  0  0  0  0  0  0  0  0
  -35.7139    1.9836  -43.6182 C   0  0  0  0  0  0  0  0  0  0  0  0
  -36.9485    2.8229  -43.2295 C   0  0  0  0  0  0  0  0  0  0  0  0
  -37.2499    3.6422  -44.5350 C   0  0  0  0  0  0  0  0  0  0  0  0
  -35.8344    3.9844  -45.0625 C   0  0  0  0  0  0  0  0  0  0  0  0
  -35.0052    2.7167  -44.7706 C   0  0  0  0  0  0  0  0  0  0  0  0
  -37.9963    4.8664  -44.2152 N   0  0  0  0  0  0  0  0  0  0  0  0
  -39.6760    4.6358  -44.4382 X   0  0  0  0  0  0  0  0  0  0  0  0
  1  2  1  0  0  0  0
  2  3  1  0  0  0  0
  2  4  1  0  0  0  0
  2  8  1  0  0  0  0
  4  5  1  0  0  0  0
  4  8  1  0  0  0  0
  5  6  1  0  0  0  0
  6  7  1  0  0  0  0
  6  9  1  0  0  0  0
  7  8  1  0  0  0  0
  9 10  1  0  0  0  0
M  END
> <Index>
18873

> <PropertyFieldDistance>
nan

$$$$
14055702
BBcorina  12272117083D 1   1.00000     0.00000 
CORINA 4.3.0 0026  30.10.2019
 10 11  0  0  0  0  0  0  0  0999 V2000
  -34.2384    3.8579  -42.5456 C   0  0  0  0  0  0  0  0  0  0  0  0
  -34.3277    2.5947  -43.4042 C   0  0  0  0  0  0  0  0  0  0  0  0
  -33.1431    1.6334  -43.2879 C   0  0  0  0  0  0  0  0  0  0  0  0
  -35.7139    1.9836  -43.6182 C   0  0  0  0  0  0  0  0  0  0  0  0
  -36.9485    2.8229  -43.2295 C   0  0  0  0  0  0  0  0  0  0  0  0
  -37.2499    3.6422  -44.5350 C   0  0  0  0  0  0  0  0  0  0  0  0
  -35.8344    3.9844  -45.0625 C   0  0  0  0  0  0  0  0  0  0  0  0
  -35.0052    2.7167  -44.7706 C   0  0  0  0  0  0  0  0  0  0  0  0
  -37.9963    4.8664  -44.2152 N   0  0  0  0  0  0  0  0  0  0  0  0
  -39.6760    4.6358  -44.4382 X   0  0  0  0  0  0  0  0  0  0  0  0
  1  2  1  0  0  0  0
  2  3  1  0  0  0  0
  2  4  1  0  0  0  0
  2  8  1  0  0  0  0
  4  5  1  0  0  0  0
  4  8  1  0  0  0  0
  5  6  1  0  0  0  0
  6  7  1  0  0  0  0
  6  9  1  0  0  0  0
  7  8  1  0  0  0  0
  9 10  1  0  0  0  0
M  END
> <Index>
18874

> <PropertyFieldDistance>
nan

$$$$
12056492
BBcorina  12272117083D 1   1.00000     0.00000 
CORINA 4.3.0 0026  30.10.2019
 14 14  0  0  0  0  0  0  0  0999 V2000
  -35.4020   -0.4458  -46.8391 C   0  0  0  0  0  0  0  0  0  0  0  0
  -36.2066    0.3733  -45.9884 O   0  0  0  0  0  0  0  0  0  0  0  0
  -35.6125    1.6313  -45.6618 C   0  0  0  0  0  0  0  0  0  0  0  0
  -36.5424    2.4082  -44.7657 C   0  0  0  0  0  0  0  0  0  0  0  0
  -37.6140    1.9369  -44.4492 O   0  0  0  0  0  0  0  0  0  0  0  0
  -36.1829    3.6268  -44.3159 N   0  0  0  0  0  0  0  0  0  0  0  0
  -37.1530    4.4958  -43.6326 C   0  0  0  0  0  0  0  0  0  0  0  0
  -38.4362    3.7115  -43.3509 C   0  0  0  0  0  0  0  0  0  0  0  0
  -36.5375    4.9677  -42.3110 C   0  0  0  0  0  0  0  0  0  0  0  0
  -35.2305    5.5838  -42.5757 N   0  0  0  0  0  0  0  0  0  0  0  0
  -34.2868    4.6098  -43.1403 C   0  0  0  0  0  0  0  0  0  0  0  0
  -34.8101    4.1232  -44.4959 C   0  0  0  0  0  0  0  0  0  0  0  0
  -33.9189    2.9932  -45.0152 C   0  0  0  0  0  0  0  0  0  0  0  0
  -34.5948    6.3039  -41.1610 X   0  0  0  0  0  0  0  0  0  0  0  0
  1  2  1  0  0  0  0
  2  3  1  0  0  0  0
  3  4  1  0  0  0  0
  4  5  2  0  0  0  0
  4  6  1  0  0  0  0
  6  7  1  0  0  0  0
  6 12  1  0  0  0  0
  7  8  1  0  0  0  0
  7  9  1  0  0  0  0
  9 10  1  0  0  0  0
 10 11  1  0  0  0  0
 10 14  1  0  0  0  0
 11 12  1  0  0  0  0
 12 13  1  0  0  0  0
M  END
> <Index>
18882

> <PropertyFieldDistance>
nan

$$$$
15564172
BBcorina  12272117083D 1   1.00000     0.00000 
CORINA 4.3.0 0026  30.10.2019
 10 10  0  0  0  0  0  0  0  0999 V2000
  -33.7277    7.2802  -41.5919 O   0  0  0  0  0  0  0  0  0  0  0  0
  -34.9458    6.5588  -41.3972 C   0  0  0  0  0  0  0  0  0  0  0  0
  -35.3534    5.8832  -42.7080 C   0  0  0  0  0  0  0  0  0  0  0  0
  -35.5375    6.8541  -43.6983 F   0  0  0  0  0  0  0  0  0  0  0  0
  -36.6587    5.1099  -42.5007 C   0  0  0  0  0  0  0  0  0  0  0  0
  -37.0290    4.3869  -43.7977 C   0  0  0  0  0  0  0  0  0  0  0  0
  -35.9479    3.4664  -44.1723 N   0  0  0  0  0  0  0  0  0  0  0  0
  -34.6959    4.1916  -44.4227 C   0  0  0  0  0  0  0  0  0  0  0  0
  -34.2558    4.9088  -43.1443 C   0  0  0  0  0  0  0  0  0  0  0  0
  -36.3899    2.5210  -45.5269 X   0  0  0  0  0  0  0  0  0  0  0  0
  1  2  1  0  0  0  0
  2  3  1  0  0  0  0
  3  4  1  0  0  0  0
  3  5  1  0  0  0  0
  3  9  1  0  0  0  0
  5  6  1  0  0  0  0
  6  7  1  0  0  0  0
  7  8  1  0  0  0  0
  7 10  1  0  0  0  0
  8  9  1  0  0  0  0
M  END
> <Index>
18885

> <PropertyFieldDistance>
nan

$$$$
15494436
BBcorina  12272117083D 1   1.00000     0.00000 
CORINA 4.3.0 0026  30.10.2019
 12 13  0  0  0  0  0  0  0  0999 V2000
  -38.4837    8.7116  -41.2159 Br  0  0  0  0  0  0  0  0  0  0  0  0
  -37.4903    7.1895  -41.7375 C   0  0  0  0  0  0  0  0  0  0  0  0
  -37.9652    6.1054  -42.5075 C   0  0  0  0  0  0  0  0  0  0  0  0
  -36.9468    5.2404  -42.6433 C   0  0  0  0  0  0  0  0  0  0  0  0
  -36.9634    3.9160  -43.3884 C   0  0  0  0  0  0  0  0  0  0  0  0
  -36.0263    4.0453  -44.5195 N   0  0  0  0  0  0  0  0  0  0  0  0
  -34.6447    3.8650  -44.1268 C   0  0  0  0  0  0  0  0  0  0  0  0
  -34.0061    4.9970  -43.3596 C   0  0  0  0  0  0  0  0  0  0  0  0
  -34.5509    5.0651  -41.9249 C   0  0  0  0  0  0  0  0  0  0  0  0
  -35.8635    5.7417  -41.9927 N   0  0  0  0  0  0  0  0  0  0  0  0
  -36.1969    6.9368  -41.4367 C   0  0  0  0  0  0  0  0  0  0  0  0
  -36.2439    5.5362  -45.3283 X   0  0  0  0  0  0  0  0  0  0  0  0
  1  2  1  0  0  0  0
  2  3  1  0  0  0  0
  2 11  2  0  0  0  0
  3  4  2  0  0  0  0
  4  5  1  0  0  0  0
  4 10  1  0  0  0  0
  5  6  1  0  0  0  0
  6  7  1  0  0  0  0
  6 12  1  0  0  0  0
  7  8  1  0  0  0  0
  8  9  1  0  0  0  0
  9 10  1  0  0  0  0
 10 11  1  0  0  0  0
M  END
> <Index>
18913

> <PropertyFieldDistance>
nan

$$$$
14187308
BBcorina  12272117083D 1   1.00000     0.00000 
CORINA 4.3.0 0026  30.10.2019
 12 12  0  0  0  0  0  0  0  0999 V2000
  -36.5180    6.0782  -46.1301 N   0  0  0  0  0  0  0  0  0  0  0  0
  -36.5543    4.4293  -45.9809 S   0  0  0  0  0  0  0  0  0  0  0  0
  -35.5965    3.9221  -46.8999 O   0  0  0  0  0  0  0  0  0  0  0  0
  -37.9249    4.0547  -46.0008 O   0  0  0  0  0  0  0  0  0  0  0  0
  -35.9910    4.0615  -44.4677 N   0  0  0  0  0  0  0  0  0  0  0  0
  -36.8946    3.9648  -43.3557 C   0  0  0  0  0  0  0  0  0  0  0  0
  -37.1380    5.2726  -42.5614 C   0  0  0  0  0  0  0  0  0  0  0  0
  -35.8010    6.0301  -42.3781 C   0  0  0  0  0  0  0  0  0  0  0  0
  -34.7267    5.1007  -42.1388 N   0  0  0  0  0  0  0  0  0  0  0  0
  -34.0373    4.9410  -43.4180 C   0  0  0  0  0  0  0  0  0  0  0  0
  -34.5264    3.8237  -44.2350 C   0  0  0  0  0  0  0  0  0  0  0  0
  -33.6618    5.6908  -40.9382 X   0  0  0  0  0  0  0  0  0  0  0  0
  1  2  1  0  0  0  0
  2  3  2  0  0  0  0
  2  4  2  0  0  0  0
  2  5  1  0  0  0  0
  5  6  1  0  0  0  0
  5 11  1  0  0  0  0
  6  7  1  0  0  0  0
  7  8  1  0  0  0  0
  8  9  1  0  0  0  0
  9 10  1  0  0  0  0
  9 12  1  0  0  0  0
 10 11  1  0  0  0  0
M  END
> <Index>
18915

> <PropertyFieldDistance>
nan

$$$$
14772320
BBcorina  12272117083D 1   1.00000     0.00000 
CORINA 4.3.0 0026  30.10.2019
 14 14  0  0  0  0  0  0  0  0999 V2000
  -33.3027    8.7220  -41.4923 C   0  0  0  0  0  0  0  0  0  0  0  0
  -33.5646    7.3204  -41.7669 O   0  0  0  0  0  0  0  0  0  0  0  0
  -34.8162    6.9931  -42.1247 C   0  0  0  0  0  0  0  0  0  0  0  0
  -35.6649    7.8494  -42.2058 O   0  0  0  0  0  0  0  0  0  0  0  0
  -35.1630    5.5577  -42.4252 C   0  0  0  0  0  0  0  0  0  0  0  0
  -36.6429    5.4576  -42.8054 C   0  0  0  0  0  0  0  0  0  0  0  0
  -36.9749    4.0081  -43.1668 C   0  0  0  0  0  0  0  0  0  0  0  0
  -36.1324    3.5770  -44.2897 N   0  0  0  0  0  0  0  0  0  0  0  0
  -36.5188    2.2380  -44.7539 C   0  0  0  0  0  0  0  0  0  0  0  0
  -35.7986    1.9261  -46.0674 C   0  0  0  0  0  0  0  0  0  0  0  0
  -36.1850    0.5870  -46.5316 N   0  0  0  0  0  0  0  0  0  0  0  0
  -34.7087    3.6195  -43.9322 C   0  0  0  0  0  0  0  0  0  0  0  0
  -34.3091    5.0575  -43.5937 C   0  0  0  0  0  0  0  0  0  0  0  0
  -35.4008    0.1977  -48.0005 X   0  0  0  0  0  0  0  0  0  0  0  0
  1  2  1  0  0  0  0
  2  3  1  0  0  0  0
  3  4  2  0  0  0  0
  3  5  1  0  0  0  0
  5  6  1  0  0  0  0
  5 13  1  0  0  0  0
  6  7  1  0  0  0  0
  7  8  1  0  0  0  0
  8  9  1  0  0  0  0
  8 12  1  0  0  0  0
  9 10  1  0  0  0  0
 10 11  1  0  0  0  0
 11 14  1  0  0  0  0
 12 13  1  0  0  0  0
M  END
> <Index>
18922

> <PropertyFieldDistance>
nan

$$$$
13576236
BBcorina  12272117083D 1   1.00000     0.00000 
CORINA 4.3.0 0026  30.10.2019
 10 11  0  0  0  0  0  0  0  0999 V2000
  -37.6700    1.4915  -44.1826 N   0  0  0  0  0  0  0  0  0  0  0  0
  -36.3059    2.0366  -44.1927 C   0  0  0  0  0  0  0  0  0  0  0  0
  -36.3219    3.3755  -44.9031 C   0  0  0  0  0  0  0  0  0  0  0  0
  -34.9077    3.9055  -45.1282 C   0  0  0  0  0  0  0  0  0  0  0  0
  -34.5063    4.7808  -43.9305 C   0  0  0  0  0  0  0  0  0  0  0  0
  -35.4941    4.8619  -42.7649 C   0  0  0  0  0  0  0  0  0  0  0  0
  -34.1931    4.0208  -42.6315 C   0  0  0  0  0  0  0  0  0  0  0  0
  -34.3249    2.4918  -42.7121 C   0  0  0  0  0  0  0  0  0  0  0  0
  -35.8059    2.1238  -42.7644 C   0  0  0  0  0  0  0  0  0  0  0  0
  -37.6468   -0.2183  -44.1920 X   0  0  0  0  0  0  0  0  0  0  0  0
  1  2  1  0  0  0  0
  1 10  1  0  0  0  0
  2  3  1  0  0  0  0
  2  9  1  0  0  0  0
  3  4  1  0  0  0  0
  4  5  1  0  0  0  0
  5  6  1  0  0  0  0
  5  7  1  0  0  0  0
  6  7  1  0  0  0  0
  7  8  1  0  0  0  0
  8  9  1  0  0  0  0
M  END
> <Index>
18939

> <PropertyFieldDistance>
nan

$$$$
13583708
BBcorina  12272117083D 1   1.00000     0.00000 
CORINA 4.3.0 0026  30.10.2019
  8  8  0  0  0  0  0  0  0  0999 V2000
  -38.3131    4.5608  -44.2604 C   0  0  0  0  0  0  0  0  0  0  0  0
  -37.0180    4.1059  -43.5848 C   0  0  0  0  0  0  0  0  0  0  0  0
  -36.6175    5.1207  -42.5092 C   0  0  0  0  0  0  0  0  0  0  0  0
  -35.2690    4.7069  -41.9114 C   0  0  0  0  0  0  0  0  0  0  0  0
  -34.3113    4.5743  -42.9655 O   0  0  0  0  0  0  0  0  0  0  0  0
  -34.6769    3.6179  -43.9626 C   0  0  0  0  0  0  0  0  0  0  0  0
  -35.9453    4.0186  -44.5865 N   0  0  0  0  0  0  0  0  0  0  0  0
  -36.3721    2.9479  -45.8497 X   0  0  0  0  0  0  0  0  0  0  0  0
  1  2  1  0  0  0  0
  2  3  1  0  0  0  0
  2  7  1  0  0  0  0
  3  4  1  0  0  0  0
  4  5  1  0  0  0  0
  5  6  1  0  0  0  0
  6  7  1  0  0  0  0
  7  8  1  0  0  0  0
M  END
> <Index>
18940

> <PropertyFieldDistance>
nan

$$$$
13780690
BBcorina  12272117083D 1   1.00000     0.00000 
CORINA 4.3.0 0026  30.10.2019
 13 14  0  0  0  0  0  0  0  0999 V2000
  -35.1137    4.0235  -41.2426 O   0  0  0  0  0  0  0  0  0  0  0  0
  -35.2463    5.1683  -42.0875 C   0  0  0  0  0  0  0  0  0  0  0  0
  -36.6796    5.2477  -42.6204 C   0  0  0  0  0  0  0  0  0  0  0  0
  -36.9724    4.0084  -43.4692 C   0  0  0  0  0  0  0  0  0  0  0  0
  -36.0194    3.9412  -44.5845 N   0  0  0  0  0  0  0  0  0  0  0  0
  -34.6397    3.8168  -44.0973 C   0  0  0  0  0  0  0  0  0  0  0  0
  -34.2763    5.0495  -43.2662 C   0  0  0  0  0  0  0  0  0  0  0  0
  -34.9320    6.4143  -41.3003 C   0  0  0  0  0  0  0  0  0  0  0  0
  -34.0804    6.5024  -40.2524 C   0  0  0  0  0  0  0  0  0  0  0  0
  -34.0819    7.8282  -39.8068 C   0  0  0  0  0  0  0  0  0  0  0  0
  -34.9048    8.5116  -40.5602 N   0  0  0  0  0  0  0  0  0  0  0  0
  -35.4538    7.6410  -41.5104 N   0  0  0  0  0  0  0  0  0  0  0  0
  -36.4111    2.6614  -45.6489 X   0  0  0  0  0  0  0  0  0  0  0  0
  1  2  1  0  0  0  0
  2  3  1  0  0  0  0
  2  7  1  0  0  0  0
  2  8  1  0  0  0  0
  3  4  1  0  0  0  0
  4  5  1  0  0  0  0
  5  6  1  0  0  0  0
  5 13  1  0  0  0  0
  6  7  1  0  0  0  0
  8  9  2  0  0  0  0
  8 12  1  0  0  0  0
  9 10  1  0  0  0  0
 10 11  2  0  0  0  0
 11 12  1  0  0  0  0
M  END
> <Index>
18956

> <PropertyFieldDistance>
nan

$$$$
14243916
BBcorina  12272117083D 1   1.00000     0.00000 
CORINA 4.3.0 0026  30.10.2019
 11 13  0  0  0  0  0  0  0  0999 V2000
  -35.9618    3.7132  -44.4019 N   0  0  0  0  0  0  0  0  0  0  0  0
  -36.7973    3.8482  -43.1801 C   0  0  0  0  0  0  0  0  0  0  0  0
  -36.9484    5.3727  -42.9819 C   0  0  0  0  0  0  0  0  0  0  0  0
  -35.7319    5.9926  -43.6987 C   0  0  0  0  0  0  0  0  0  0  0  0
  -34.9471    4.7910  -44.2700 C   0  0  0  0  0  0  0  0  0  0  0  0
  -33.9327    4.3386  -43.2038 C   0  0  0  0  0  0  0  0  0  0  0  0
  -34.6878    4.1124  -41.8937 C   0  0  0  0  0  0  0  0  0  0  0  0
  -35.9768    3.2969  -41.9997 C   0  0  0  0  0  0  0  0  0  0  0  0
  -33.9328    4.0724  -40.6465 N   0  0  0  0  0  0  0  0  0  0  0  0
  -34.5781    5.1151  -40.8399 N   0  0  0  0  0  0  0  0  0  0  0  0
  -35.2173    2.1753  -44.4683 X   0  0  0  0  0  0  0  0  0  0  0  0
  1  2  1  0  0  0  0
  1  5  1  0  0  0  0
  1 11  1  0  0  0  0
  2  3  1  0  0  0  0
  2  8  1  0  0  0  0
  3  4  1  0  0  0  0
  4  5  1  0  0  0  0
  5  6  1  0  0  0  0
  6  7  1  0  0  0  0
  7  8  1  0  0  0  0
  7  9  1  0  0  0  0
  7 10  1  0  0  0  0
  9 10  2  0  0  0  0
M  END
> <Index>
18957

> <PropertyFieldDistance>
nan

$$$$
14250210
BBcorina  12272117083D 1   1.00000     0.00000 
CORINA 4.3.0 0026  30.10.2019
  9  9  0  0  0  0  0  0  0  0999 V2000
  -35.6915    1.4483  -41.9561 N   0  0  0  0  0  0  0  0  0  0  0  0
  -35.8334    2.4774  -42.9948 C   0  0  0  0  0  0  0  0  0  0  0  0
  -35.1756    2.0129  -44.2967 C   0  0  0  0  0  0  0  0  0  0  0  0
  -35.8213    2.4655  -45.5115 C   0  0  0  0  0  0  0  0  0  0  0  0
  -35.7446    4.0120  -45.6227 C   0  0  0  0  0  0  0  0  0  0  0  0
  -36.8774    4.7588  -44.4512 S   0  0  0  0  0  0  0  0  0  0  0  0
  -35.9600    4.9652  -42.8891 C   0  0  0  0  0  0  0  0  0  0  0  0
  -35.0753    3.7304  -42.6005 C   0  0  0  0  0  0  0  0  0  0  0  0
  -34.0434    1.1227  -41.6371 X   0  0  0  0  0  0  0  0  0  0  0  0
  1  2  1  0  0  0  0
  1  9  1  0  0  0  0
  2  3  1  0  0  0  0
  2  8  1  0  0  0  0
  3  4  1  0  0  0  0
  4  5  1  0  0  0  0
  5  6  1  0  0  0  0
  6  7  1  0  0  0  0
  7  8  1  0  0  0  0
M  END
> <Index>
18958

> <PropertyFieldDistance>
nan

$$$$
14246748
BBcorina  12272117083D 1   1.00000     0.00000 
CORINA 4.3.0 0026  30.10.2019
 12 13  0  0  0  0  0  0  0  0999 V2000
  -35.6629    6.7813  -44.1908 C   0  0  0  0  0  0  0  0  0  0  0  0
  -35.3914    6.0027  -42.9020 C   0  0  0  0  0  0  0  0  0  0  0  0
  -35.0073    6.9473  -41.7614 C   0  0  0  0  0  0  0  0  0  0  0  0
  -34.3003    4.9198  -43.1224 C   0  0  0  0  0  0  0  0  0  0  0  0
  -34.5208    3.9425  -41.9437 C   0  0  0  0  0  0  0  0  0  0  0  0
  -36.0043    4.0731  -41.5521 C   0  0  0  0  0  0  0  0  0  0  0  0
  -36.6108    5.1232  -42.5129 C   0  0  0  0  0  0  0  0  0  0  0  0
  -37.7579    5.9142  -41.8809 C   0  0  0  0  0  0  0  0  0  0  0  0
  -37.0350    4.3790  -43.7923 C   0  0  0  0  0  0  0  0  0  0  0  0
  -35.9562    3.4694  -44.1978 N   0  0  0  0  0  0  0  0  0  0  0  0
  -34.6851    4.1721  -44.4122 C   0  0  0  0  0  0  0  0  0  0  0  0
  -36.4007    2.5707  -45.5830 X   0  0  0  0  0  0  0  0  0  0  0  0
  1  2  1  0  0  0  0
  2  3  1  0  0  0  0
  2  4  1  0  0  0  0
  2  7  1  0  0  0  0
  4  5  1  0  0  0  0
  4 11  1  0  0  0  0
  5  6  1  0  0  0  0
  6  7  1  0  0  0  0
  7  8  1  0  0  0  0
  7  9  1  0  0  0  0
  9 10  1  0  0  0  0
 10 11  1  0  0  0  0
 10 12  1  0  0  0  0
M  END
> <Index>
18975

> <PropertyFieldDistance>
nan

$$$$
14250690
BBcorina  12272117083D 1   1.00000     0.00000 
CORINA 4.3.0 0026  30.10.2019
 13 13  0  0  0  0  0  0  0  0999 V2000
  -38.7956    6.0233  -41.8043 C   0  0  0  0  0  0  0  0  0  0  0  0
  -37.5940    5.3026  -41.5237 O   0  0  0  0  0  0  0  0  0  0  0  0
  -36.6796    5.2477  -42.6204 C   0  0  0  0  0  0  0  0  0  0  0  0
  -36.9723    4.0084  -43.4693 C   0  0  0  0  0  0  0  0  0  0  0  0
  -36.0194    3.9412  -44.5845 N   0  0  0  0  0  0  0  0  0  0  0  0
  -34.6397    3.8168  -44.0973 C   0  0  0  0  0  0  0  0  0  0  0  0
  -34.2763    5.0495  -43.2662 C   0  0  0  0  0  0  0  0  0  0  0  0
  -35.2463    5.1683  -42.0875 C   0  0  0  0  0  0  0  0  0  0  0  0
  -34.9321    6.4145  -41.3003 C   0  0  0  0  0  0  0  0  0  0  0  0
  -35.7669    7.2794  -41.1796 O   0  0  0  0  0  0  0  0  0  0  0  0
  -33.7227    6.5658  -40.7379 O   0  0  0  0  0  0  0  0  0  0  0  0
  -33.4902    7.7911  -39.9943 C   0  0  0  0  0  0  0  0  0  0  0  0
  -36.4110    2.6614  -45.6489 X   0  0  0  0  0  0  0  0  0  0  0  0
  1  2  1  0  0  0  0
  2  3  1  0  0  0  0
  3  4  1  0  0  0  0
  3  8  1  0  0  0  0
  4  5  1  0  0  0  0
  5  6  1  0  0  0  0
  5 13  1  0  0  0  0
  6  7  1  0  0  0  0
  7  8  1  0  0  0  0
  8  9  1  0  0  0  0
  9 10  2  0  0  0  0
  9 11  1  0  0  0  0
 11 12  1  0  0  0  0
M  END
> <Index>
18980

> <PropertyFieldDistance>
nan

$$$$
14187460
BBcorina  12272117083D 1   1.00000     0.00000 
CORINA 4.3.0 0026  30.10.2019
 12 13  0  0  0  0  0  0  0  0999 V2000
  -39.2901    8.4954  -41.5982 Br  0  0  0  0  0  0  0  0  0  0  0  0
  -37.9463    7.1948  -41.8785 C   0  0  0  0  0  0  0  0  0  0  0  0
  -38.1075    6.0557  -42.5495 C   0  0  0  0  0  0  0  0  0  0  0  0
  -36.9769    5.2461  -42.6346 C   0  0  0  0  0  0  0  0  0  0  0  0
  -36.9540    3.9119  -43.3839 C   0  0  0  0  0  0  0  0  0  0  0  0
  -36.0236    4.0530  -44.5112 N   0  0  0  0  0  0  0  0  0  0  0  0
  -34.6371    3.8621  -44.1410 C   0  0  0  0  0  0  0  0  0  0  0  0
  -33.9957    4.9906  -43.3669 C   0  0  0  0  0  0  0  0  0  0  0  0
  -34.5530    5.0534  -41.9387 C   0  0  0  0  0  0  0  0  0  0  0  0
  -35.9077    5.7465  -42.0114 C   0  0  0  0  0  0  0  0  0  0  0  0
  -36.2897    7.3067  -41.2998 S   0  0  0  0  0  0  0  0  0  0  0  0
  -36.4617    3.0187  -45.8005 X   0  0  0  0  0  0  0  0  0  0  0  0
  1  2  1  0  0  0  0
  2  3  2  0  0  0  0
  2 11  1  0  0  0  0
  3  4  1  0  0  0  0
  4  5  1  0  0  0  0
  4 10  2  0  0  0  0
  5  6  1  0  0  0  0
  6  7  1  0  0  0  0
  6 12  1  0  0  0  0
  7  8  1  0  0  0  0
  8  9  1  0  0  0  0
  9 10  1  0  0  0  0
 10 11  1  0  0  0  0
M  END
> <Index>
18982

> <PropertyFieldDistance>
nan

$$$$
16359628
BBcorina  12272117083D 1   1.00000     0.00000 
CORINA 4.3.0 0026  30.10.2019
 11 12  0  0  0  0  0  0  0  0999 V2000
  -37.5824    6.3051  -42.2003 C   0  0  0  0  0  0  0  0  0  0  0  0
  -36.6996    5.0760  -42.4258 C   0  0  0  0  0  0  0  0  0  0  0  0
  -36.9586    4.5023  -43.8244 C   0  0  0  0  0  0  0  0  0  0  0  0
  -35.9510    3.4794  -44.1370 N   0  0  0  0  0  0  0  0  0  0  0  0
  -34.6302    4.0884  -44.3738 C   0  0  0  0  0  0  0  0  0  0  0  0
  -34.3331    5.0202  -43.2243 C   0  0  0  0  0  0  0  0  0  0  0  0
  -33.1545    5.5566  -42.8750 C   0  0  0  0  0  0  0  0  0  0  0  0
  -33.3783    6.3564  -41.7342 C   0  0  0  0  0  0  0  0  0  0  0  0
  -34.6924    6.2750  -41.4331 C   0  0  0  0  0  0  0  0  0  0  0  0
  -35.2851    5.4600  -42.3422 N   0  0  0  0  0  0  0  0  0  0  0  0
  -36.4363    2.5294  -45.4734 X   0  0  0  0  0  0  0  0  0  0  0  0
  1  2  1  0  0  0  0
  2  3  1  0  0  0  0
  2 10  1  0  0  0  0
  3  4  1  0  0  0  0
  4  5  1  0  0  0  0
  4 11  1  0  0  0  0
  5  6  1  0  0  0  0
  6  7  2  0  0  0  0
  6 10  1  0  0  0  0
  7  8  1  0  0  0  0
  8  9  2  0  0  0  0
  9 10  1  0  0  0  0
M  END
> <Index>
18985

> <PropertyFieldDistance>
nan

$$$$
13890192
BBcorina  12272117083D 1   1.00000     0.00000 
CORINA 4.3.0 0026  30.10.2019
 13 13  0  0  0  0  0  0  0  0999 V2000
  -30.4878    6.6539  -42.6116 F   0  0  0  0  0  0  0  0  0  0  0  0
  -30.5685    5.5885  -43.5147 C   0  0  0  0  0  0  0  0  0  0  0  0
  -29.4502    4.7619  -43.3620 F   0  0  0  0  0  0  0  0  0  0  0  0
  -30.6053    6.0866  -44.8215 F   0  0  0  0  0  0  0  0  0  0  0  0
  -31.8398    4.7825  -43.2403 C   0  0  0  0  0  0  0  0  0  0  0  0
  -33.0140    5.6504  -43.4007 N   0  0  0  0  0  0  0  0  0  0  0  0
  -34.2559    4.9088  -43.1443 C   0  0  0  0  0  0  0  0  0  0  0  0
  -35.3534    5.8832  -42.7079 C   0  0  0  0  0  0  0  0  0  0  0  0
  -36.6587    5.1099  -42.5007 C   0  0  0  0  0  0  0  0  0  0  0  0
  -37.0291    4.3869  -43.7977 C   0  0  0  0  0  0  0  0  0  0  0  0
  -35.9479    3.4664  -44.1723 N   0  0  0  0  0  0  0  0  0  0  0  0
  -34.6958    4.1916  -44.4226 C   0  0  0  0  0  0  0  0  0  0  0  0
  -36.3899    2.5210  -45.5270 X   0  0  0  0  0  0  0  0  0  0  0  0
  1  2  1  0  0  0  0
  2  3  1  0  0  0  0
  2  4  1  0  0  0  0
  2  5  1  0  0  0  0
  5  6  1  0  0  0  0
  6  7  1  0  0  0  0
  7  8  1  0  0  0  0
  7 12  1  0  0  0  0
  8  9  1  0  0  0  0
  9 10  1  0  0  0  0
 10 11  1  0  0  0  0
 11 12  1  0  0  0  0
 11 13  1  0  0  0  0
M  END
> <Index>
19007

> <PropertyFieldDistance>
nan

$$$$
16769142
BBcorina  12272117083D 1   1.00000     0.00000 
CORINA 4.3.0 0026  30.10.2019
 10 10  0  0  0  0  0  0  0  0999 V2000
  -34.6585    6.5000  -43.4156 F   0  0  0  0  0  0  0  0  0  0  0  0
  -34.0836    5.2761  -43.7745 C   0  0  0  0  0  0  0  0  0  0  0  0
  -35.1878    4.2795  -44.1327 C   0  0  0  0  0  0  0  0  0  0  0  0
  -36.1043    4.0776  -42.9244 C   0  0  0  0  0  0  0  0  0  0  0  0
  -37.2085    3.0810  -43.2827 C   0  0  0  0  0  0  0  0  0  0  0  0
  -36.5798    1.7425  -43.6751 C   0  0  0  0  0  0  0  0  0  0  0  0
  -35.6633    1.9444  -44.8835 C   0  0  0  0  0  0  0  0  0  0  0  0
  -34.5590    2.9410  -44.5252 C   0  0  0  0  0  0  0  0  0  0  0  0
  -35.7959    1.2204  -42.5478 N   0  0  0  0  0  0  0  0  0  0  0  0
  -35.7727   -0.4894  -42.5572 X   0  0  0  0  0  0  0  0  0  0  0  0
  1  2  1  0  0  0  0
  2  3  1  0  0  0  0
  3  4  1  0  0  0  0
  3  8  1  0  0  0  0
  4  5  1  0  0  0  0
  5  6  1  0  0  0  0
  6  7  1  0  0  0  0
  6  9  1  0  0  0  0
  7  8  1  0  0  0  0
  9 10  1  0  0  0  0
M  END
> <Index>
19013

> <PropertyFieldDistance>
nan

$$$$
14250540
BBcorina  12272117083D 1   1.00000     0.00000 
CORINA 4.3.0 0026  30.10.2019
 12 13  0  0  0  0  0  0  0  0999 V2000
  -38.6940    2.9746  -43.6218 N   0  0  0  0  0  0  0  0  0  0  0  0
  -37.5740    2.9205  -42.6728 C   0  0  0  0  0  0  0  0  0  0  0  0
  -36.5275    3.9679  -43.0586 C   0  0  0  0  0  0  0  0  0  0  0  0
  -35.2495    3.9004  -42.1757 C   0  0  0  0  0  0  0  0  0  0  0  0
  -34.2770    4.6738  -43.1127 C   0  0  0  0  0  0  0  0  0  0  0  0
  -34.6598    6.1612  -42.9947 C   0  0  0  0  0  0  0  0  0  0  0  0
  -36.0526    6.3613  -43.5968 C   0  0  0  0  0  0  0  0  0  0  0  0
  -37.0567    5.4095  -42.9431 C   0  0  0  0  0  0  0  0  0  0  0  0
  -36.0059    3.8058  -44.4312 N   0  0  0  0  0  0  0  0  0  0  0  0
  -34.7201    4.2067  -44.4921 C   0  0  0  0  0  0  0  0  0  0  0  0
  -34.0283    4.2010  -45.4882 O   0  0  0  0  0  0  0  0  0  0  0  0
  -39.8890    1.8173  -43.2261 X   0  0  0  0  0  0  0  0  0  0  0  0
  1  2  1  0  0  0  0
  1 12  1  0  0  0  0
  2  3  1  0  0  0  0
  3  4  1  0  0  0  0
  3  8  1  0  0  0  0
  3  9  1  0  0  0  0
  4  5  1  0  0  0  0
  5  6  1  0  0  0  0
  5 10  1  0  0  0  0
  6  7  1  0  0  0  0
  7  8  1  0  0  0  0
  9 10  1  0  0  0  0
 10 11  2  0  0  0  0
M  END
> <Index>
19025

> <PropertyFieldDistance>
nan

$$$$
14318272
BBcorina  12272117083D 1   1.00000     0.00000 
CORINA 4.3.0 0026  30.10.2019
 12 13  0  0  0  0  0  0  0  0999 V2000
  -36.0173    3.5947  -44.4893 N   0  0  0  0  0  0  0  0  0  0  0  0
  -36.3940    2.1773  -44.5710 C   0  0  0  0  0  0  0  0  0  0  0  0
  -36.1052    1.6496  -45.9908 C   0  0  0  0  0  0  0  0  0  0  0  0
  -36.9698    2.4264  -46.9729 C   0  0  0  0  0  0  0  0  0  0  0  0
  -37.0121    1.7951  -48.3562 C   0  0  0  0  0  0  0  0  0  0  0  0
  -35.6658    1.8766  -49.0608 C   0  0  0  0  0  0  0  0  0  0  0  0
  -34.6012    1.0089  -48.4099 C   0  0  0  0  0  0  0  0  0  0  0  0
  -35.0837   -0.3980  -48.0981 C   0  0  0  0  0  0  0  0  0  0  0  0
  -36.4442   -0.4222  -47.4166 C   0  0  0  0  0  0  0  0  0  0  0  0
  -36.3866    0.1544  -46.0103 C   0  0  0  0  0  0  0  0  0  0  0  0
  -37.4678    0.3396  -48.2576 C   0  0  0  0  0  0  0  0  0  0  0  0
  -36.3221    4.2209  -42.9275 X   0  0  0  0  0  0  0  0  0  0  0  0
  1  2  1  0  0  0  0
  1 12  1  0  0  0  0
  2  3  1  0  0  0  0
  3  4  1  0  0  0  0
  3 10  1  0  0  0  0
  4  5  1  0  0  0  0
  5  6  1  0  0  0  0
  5 11  1  0  0  0  0
  6  7  1  0  0  0  0
  7  8  1  0  0  0  0
  8  9  1  0  0  0  0
  9 10  1  0  0  0  0
  9 11  1  0  0  0  0
M  END
> <Index>
19032

> <PropertyFieldDistance>
nan

$$$$
15501824
BBcorina  12272117083D 1   1.00000     0.00000 
CORINA 4.3.0 0026  30.10.2019
 11 11  0  0  0  0  0  0  0  0999 V2000
  -33.3128    7.6070  -41.3940 C   0  0  0  0  0  0  0  0  0  0  0  0
  -34.8688    6.6898  -41.1467 P   0  0  0  0  0  0  0  0  0  0  0  0
  -34.6744    5.6618  -40.0999 O   0  0  0  0  0  0  0  0  0  0  0  0
  -36.1794    7.8456  -40.6274 C   0  0  0  0  0  0  0  0  0  0  0  0
  -35.3535    5.8832  -42.7080 C   0  0  0  0  0  0  0  0  0  0  0  0
  -36.6587    5.1099  -42.5007 C   0  0  0  0  0  0  0  0  0  0  0  0
  -37.0290    4.3869  -43.7977 C   0  0  0  0  0  0  0  0  0  0  0  0
  -35.9480    3.4664  -44.1723 N   0  0  0  0  0  0  0  0  0  0  0  0
  -34.6958    4.1916  -44.4226 C   0  0  0  0  0  0  0  0  0  0  0  0
  -34.2558    4.9088  -43.1443 C   0  0  0  0  0  0  0  0  0  0  0  0
  -36.3899    2.5209  -45.5269 X   0  0  0  0  0  0  0  0  0  0  0  0
  1  2  1  0  0  0  0
  2  3  2  0  0  0  0
  2  4  1  0  0  0  0
  2  5  1  0  0  0  0
  5  6  1  0  0  0  0
  5 10  1  0  0  0  0
  6  7  1  0  0  0  0
  7  8  1  0  0  0  0
  8  9  1  0  0  0  0
  8 11  1  0  0  0  0
  9 10  1  0  0  0  0
M  END
> <Index>
19034

> <PropertyFieldDistance>
nan

$$$$
13769866
BBcorina  12272117083D 1   1.00000     0.00000 
CORINA 4.3.0 0026  30.10.2019
 11 11  0  0  0  0  0  0  0  0999 V2000
  -36.4709    6.3252  -43.3700 F   0  0  0  0  0  0  0  0  0  0  0  0
  -36.8439    5.2312  -42.5817 C   0  0  0  0  0  0  0  0  0  0  0  0
  -38.0575    5.5039  -41.9413 F   0  0  0  0  0  0  0  0  0  0  0  0
  -36.9938    3.9878  -43.4630 C   0  0  0  0  0  0  0  0  0  0  0  0
  -36.0054    3.9928  -44.5319 N   0  0  0  0  0  0  0  0  0  0  0  0
  -34.6200    3.8165  -44.1214 C   0  0  0  0  0  0  0  0  0  0  0  0
  -34.1241    5.0353  -43.3397 C   0  0  0  0  0  0  0  0  0  0  0  0
  -34.4918    4.8657  -41.9239 N   0  0  0  0  0  0  0  0  0  0  0  0
  -35.7712    4.9582  -41.5474 C   0  0  0  0  0  0  0  0  0  0  0  0
  -36.0731    4.8230  -40.3806 O   0  0  0  0  0  0  0  0  0  0  0  0
  -36.4265    2.8811  -45.7612 X   0  0  0  0  0  0  0  0  0  0  0  0
  1  2  1  0  0  0  0
  2  3  1  0  0  0  0
  2  4  1  0  0  0  0
  2  9  1  0  0  0  0
  4  5  1  0  0  0  0
  5  6  1  0  0  0  0
  5 11  1  0  0  0  0
  6  7  1  0  0  0  0
  7  8  1  0  0  0  0
  8  9  1  0  0  0  0
  9 10  2  0  0  0  0
M  END
> <Index>
19039

> <PropertyFieldDistance>
nan

$$$$
13576120
BBcorina  12272117083D 1   1.00000     0.00000 
CORINA 4.3.0 0026  30.10.2019
  8  8  0  0  0  0  0  0  0  0999 V2000
  -34.2066    4.7620  -44.9349 C   0  0  0  0  0  0  0  0  0  0  0  0
  -34.2254    3.3534  -44.3379 C   0  0  0  0  0  0  0  0  0  0  0  0
  -35.5448    3.1316  -43.5956 C   0  0  0  0  0  0  0  0  0  0  0  0
  -36.7686    3.8178  -44.2058 C   0  0  0  0  0  0  0  0  0  0  0  0
  -35.4865    3.0139  -42.0705 C   0  0  0  0  0  0  0  0  0  0  0  0
  -35.7579    1.7735  -42.9241 C   0  0  0  0  0  0  0  0  0  0  0  0
  -37.1220    1.2284  -42.9140 N   0  0  0  0  0  0  0  0  0  0  0  0
  -37.0988   -0.4814  -42.9234 X   0  0  0  0  0  0  0  0  0  0  0  0
  1  2  1  0  0  0  0
  2  3  1  0  0  0  0
  3  4  1  0  0  0  0
  3  5  1  0  0  0  0
  3  6  1  0  0  0  0
  5  6  1  0  0  0  0
  6  7  1  0  0  0  0
  7  8  1  0  0  0  0
M  END
> <Index>
19040

> <PropertyFieldDistance>
nan

$$$$
14316744
BBcorina  12272117083D 1   1.00000     0.00000 
CORINA 4.3.0 0026  30.10.2019
 10 11  0  0  0  0  0  0  0  0999 V2000
  -33.0979    7.0423  -41.0989 Br  0  0  0  0  0  0  0  0  0  0  0  0
  -34.9835    6.8894  -41.6342 C   0  0  0  0  0  0  0  0  0  0  0  0
  -35.3426    7.2666  -43.0733 C   0  0  0  0  0  0  0  0  0  0  0  0
  -35.3443    5.8010  -42.6431 C   0  0  0  0  0  0  0  0  0  0  0  0
  -36.6998    5.1033  -42.4888 C   0  0  0  0  0  0  0  0  0  0  0  0
  -37.0336    4.3874  -43.8022 C   0  0  0  0  0  0  0  0  0  0  0  0
  -35.9406    3.4715  -44.1513 N   0  0  0  0  0  0  0  0  0  0  0  0
  -34.6971    4.1987  -44.4345 C   0  0  0  0  0  0  0  0  0  0  0  0
  -34.2162    4.9028  -43.1609 C   0  0  0  0  0  0  0  0  0  0  0  0
  -36.3773    2.4691  -45.4661 X   0  0  0  0  0  0  0  0  0  0  0  0
  1  2  1  0  0  0  0
  2  3  1  0  0  0  0
  2  4  1  0  0  0  0
  3  4  1  0  0  0  0
  4  5  1  0  0  0  0
  4  9  1  0  0  0  0
  5  6  1  0  0  0  0
  6  7  1  0  0  0  0
  7  8  1  0  0  0  0
  7 10  1  0  0  0  0
  8  9  1  0  0  0  0
M  END
> <Index>
19057

> <PropertyFieldDistance>
nan

$$$$
14326084
BBcorina  12272117083D 1   1.00000     0.00000 
CORINA 4.3.0 0026  30.10.2019
 14 14  0  0  0  0  0  0  0  0999 V2000
  -34.5770    1.4659  -44.9507 F   0  0  0  0  0  0  0  0  0  0  0  0
  -35.9752    1.4793  -44.9947 C   0  0  0  0  0  0  0  0  0  0  0  0
  -36.4841    1.2980  -43.7042 F   0  0  0  0  0  0  0  0  0  0  0  0
  -36.4552    2.8226  -45.5480 C   0  0  0  0  0  0  0  0  0  0  0  0
  -35.7927    3.0821  -46.9025 C   0  0  0  0  0  0  0  0  0  0  0  0
  -36.3655    4.3627  -47.5133 C   0  0  0  0  0  0  0  0  0  0  0  0
  -35.7294    4.6119  -48.8138 N   0  0  0  0  0  0  0  0  0  0  0  0
  -36.0930    3.8953  -44.6122 N   0  0  0  0  0  0  0  0  0  0  0  0
  -36.9628    3.8767  -43.4271 C   0  0  0  0  0  0  0  0  0  0  0  0
  -36.5908    5.0440  -42.5091 C   0  0  0  0  0  0  0  0  0  0  0  0
  -35.2058    4.9515  -42.1647 O   0  0  0  0  0  0  0  0  0  0  0  0
  -34.3296    4.9671  -43.2960 C   0  0  0  0  0  0  0  0  0  0  0  0
  -34.6788    3.7988  -44.2219 C   0  0  0  0  0  0  0  0  0  0  0  0
  -36.3424    6.0374  -49.5326 X   0  0  0  0  0  0  0  0  0  0  0  0
  1  2  1  0  0  0  0
  2  3  1  0  0  0  0
  2  4  1  0  0  0  0
  4  5  1  0  0  0  0
  4  8  1  0  0  0  0
  5  6  1  0  0  0  0
  6  7  1  0  0  0  0
  7 14  1  0  0  0  0
  8  9  1  0  0  0  0
  8 13  1  0  0  0  0
  9 10  1  0  0  0  0
 10 11  1  0  0  0  0
 11 12  1  0  0  0  0
 12 13  1  0  0  0  0
M  END
> <Index>
19062

> <PropertyFieldDistance>
nan

$$$$
13776184
BBcorina  12272117083D 1   1.00000     0.00000 
CORINA 4.3.0 0026  30.10.2019
 12 13  0  0  0  0  0  0  0  0999 V2000
  -36.0192    3.9414  -44.5845 N   0  0  0  0  0  0  0  0  0  0  0  0
  -36.9723    4.0087  -43.4695 C   0  0  0  0  0  0  0  0  0  0  0  0
  -36.6793    5.2476  -42.6202 C   0  0  0  0  0  0  0  0  0  0  0  0
  -35.2461    5.1675  -42.0870 C   0  0  0  0  0  0  0  0  0  0  0  0
  -34.2769    5.0496  -43.2665 C   0  0  0  0  0  0  0  0  0  0  0  0
  -34.6396    3.8164  -44.0970 C   0  0  0  0  0  0  0  0  0  0  0  0
  -34.9316    6.4133  -41.2994 C   0  0  0  0  0  0  0  0  0  0  0  0
  -34.5814    6.4710  -40.0038 C   0  0  0  0  0  0  0  0  0  0  0  0
  -34.3892    7.7645  -39.6902 N   0  0  0  0  0  0  0  0  0  0  0  0
  -34.6109    8.4886  -40.7500 C   0  0  0  0  0  0  0  0  0  0  0  0
  -34.9431    7.6782  -41.7637 O   0  0  0  0  0  0  0  0  0  0  0  0
  -36.4110    2.6622  -45.6494 X   0  0  0  0  0  0  0  0  0  0  0  0
  1  2  1  0  0  0  0
  1  6  1  0  0  0  0
  1 12  1  0  0  0  0
  2  3  1  0  0  0  0
  3  4  1  0  0  0  0
  4  5  1  0  0  0  0
  4  7  1  0  0  0  0
  5  6  1  0  0  0  0
  7  8  2  0  0  0  0
  7 11  1  0  0  0  0
  8  9  1  0  0  0  0
  9 10  2  0  0  0  0
 10 11  1  0  0  0  0
M  END
> <Index>
19077

> <PropertyFieldDistance>
nan

$$$$
13460024
BBcorina  12272117083D 1   1.00000     0.00000 
CORINA 4.3.0 0026  30.10.2019
 13 13  0  0  0  0  0  0  0  0999 V2000
  -34.7277   -1.9884  -46.4154 C   0  0  0  0  0  0  0  0  0  0  0  0
  -34.3674   -0.5568  -46.0133 C   0  0  0  0  0  0  0  0  0  0  0  0
  -35.6151    0.1541  -45.4852 C   0  0  0  0  0  0  0  0  0  0  0  0
  -35.2731    1.5126  -45.1037 O   0  0  0  0  0  0  0  0  0  0  0  0
  -36.2667    2.2788  -44.6153 C   0  0  0  0  0  0  0  0  0  0  0  0
  -37.3889    1.8247  -44.5109 O   0  0  0  0  0  0  0  0  0  0  0  0
  -36.0167    3.5496  -44.2424 N   0  0  0  0  0  0  0  0  0  0  0  0
  -37.0874    4.4037  -43.7065 C   0  0  0  0  0  0  0  0  0  0  0  0
  -36.6071    5.0158  -42.3863 C   0  0  0  0  0  0  0  0  0  0  0  0
  -35.3220    5.6933  -42.6033 N   0  0  0  0  0  0  0  0  0  0  0  0
  -34.2808    4.7422  -43.0145 C   0  0  0  0  0  0  0  0  0  0  0  0
  -34.6644    4.1171  -44.3547 C   0  0  0  0  0  0  0  0  0  0  0  0
  -34.8436    6.5609  -41.2094 X   0  0  0  0  0  0  0  0  0  0  0  0
  1  2  1  0  0  0  0
  2  3  1  0  0  0  0
  3  4  1  0  0  0  0
  4  5  1  0  0  0  0
  5  6  2  0  0  0  0
  5  7  1  0  0  0  0
  7  8  1  0  0  0  0
  7 12  1  0  0  0  0
  8  9  1  0  0  0  0
  9 10  1  0  0  0  0
 10 11  1  0  0  0  0
 10 13  1  0  0  0  0
 11 12  1  0  0  0  0
M  END
> <Index>
19080

> <PropertyFieldDistance>
nan

$$$$
14427674
BBcorina  12272117083D 1   1.00000     0.00000 
CORINA 4.3.0 0026  30.10.2019
 11 11  0  0  0  0  0  0  0  0999 V2000
  -36.4489    0.7690  -46.6898 F   0  0  0  0  0  0  0  0  0  0  0  0
  -36.2591    2.0498  -46.1597 C   0  0  0  0  0  0  0  0  0  0  0  0
  -36.1929    1.9655  -44.6335 C   0  0  0  0  0  0  0  0  0  0  0  0
  -35.9942    3.3068  -44.0786 N   0  0  0  0  0  0  0  0  0  0  0  0
  -37.0824    4.2177  -43.7044 C   0  0  0  0  0  0  0  0  0  0  0  0
  -36.4355    5.2823  -42.7909 C   0  0  0  0  0  0  0  0  0  0  0  0
  -34.9614    5.2469  -43.2641 C   0  0  0  0  0  0  0  0  0  0  0  0
  -34.7236    6.2696  -44.2915 N   0  0  0  0  0  0  0  0  0  0  0  0
  -34.7918    3.8613  -43.8471 C   0  0  0  0  0  0  0  0  0  0  0  0
  -33.7260    3.3282  -44.0726 O   0  0  0  0  0  0  0  0  0  0  0  0
  -35.7955    6.0751  -45.6095 X   0  0  0  0  0  0  0  0  0  0  0  0
  1  2  1  0  0  0  0
  2  3  1  0  0  0  0
  3  4  1  0  0  0  0
  4  5  1  0  0  0  0
  4  9  1  0  0  0  0
  5  6  1  0  0  0  0
  6  7  1  0  0  0  0
  7  8  1  0  0  0  0
  7  9  1  0  0  0  0
  8 11  1  0  0  0  0
  9 10  2  0  0  0  0
M  END
> <Index>
19090

> <PropertyFieldDistance>
nan

$$$$
14729276
BBcorina  12272117083D 1   1.00000     0.00000 
CORINA 4.3.0 0026  30.10.2019
 12 12  0  0  0  0  0  0  0  0999 V2000
  -37.6103    5.5773  -41.5408 C   0  0  0  0  0  0  0  0  0  0  0  0
  -36.6573    5.3787  -42.7211 C   0  0  0  0  0  0  0  0  0  0  0  0
  -37.0172    4.0834  -43.4566 C   0  0  0  0  0  0  0  0  0  0  0  0
  -36.0012    3.8356  -44.4908 N   0  0  0  0  0  0  0  0  0  0  0  0
  -34.5847    3.8675  -44.0964 C   0  0  0  0  0  0  0  0  0  0  0  0
  -34.3205    5.1713  -43.3357 C   0  0  0  0  0  0  0  0  0  0  0  0
  -35.2767    5.2899  -42.2269 N   0  0  0  0  0  0  0  0  0  0  0  0
  -36.4406    3.5281  -46.0576 S   0  0  0  0  0  0  0  0  0  0  0  0
  -37.7049    4.1615  -46.1976 O   0  0  0  0  0  0  0  0  0  0  0  0
  -35.3211    3.9495  -46.8246 O   0  0  0  0  0  0  0  0  0  0  0  0
  -36.6206    1.7246  -46.1316 C   0  0  0  0  0  0  0  0  0  0  0  0
  -34.8958    6.6256  -41.2295 X   0  0  0  0  0  0  0  0  0  0  0  0
  1  2  1  0  0  0  0
  2  3  1  0  0  0  0
  2  7  1  0  0  0  0
  3  4  1  0  0  0  0
  4  5  1  0  0  0  0
  4  8  1  0  0  0  0
  5  6  1  0  0  0  0
  6  7  1  0  0  0  0
  7 12  1  0  0  0  0
  8  9  2  0  0  0  0
  8 10  2  0  0  0  0
  8 11  1  0  0  0  0
M  END
> <Index>
19095

> <PropertyFieldDistance>
nan

$$$$
17604366
BBcorina  12272117083D 1   1.00000     0.00000 
CORINA 4.3.0 0026  30.10.2019
 13 13  0  0  0  0  0  0  0  0999 V2000
  -35.5194   -0.0079  -47.3046 C   0  0  0  0  0  0  0  0  0  0  0  0
  -36.2180    0.4947  -46.1638 O   0  0  0  0  0  0  0  0  0  0  0  0
  -35.5544    1.5758  -45.5058 C   0  0  0  0  0  0  0  0  0  0  0  0
  -34.6198    1.0209  -44.4291 C   0  0  0  0  0  0  0  0  0  0  0  0
  -36.5777    2.4784  -44.8661 C   0  0  0  0  0  0  0  0  0  0  0  0
  -37.7380    2.1309  -44.8030 O   0  0  0  0  0  0  0  0  0  0  0  0
  -36.2035    3.6720  -44.3641 N   0  0  0  0  0  0  0  0  0  0  0  0
  -37.1597    4.5162  -43.6317 C   0  0  0  0  0  0  0  0  0  0  0  0
  -36.5278    4.9209  -42.2957 C   0  0  0  0  0  0  0  0  0  0  0  0
  -35.2180    5.5378  -42.5441 N   0  0  0  0  0  0  0  0  0  0  0  0
  -34.2881    4.5834  -43.1625 C   0  0  0  0  0  0  0  0  0  0  0  0
  -34.8266    4.1620  -44.5288 C   0  0  0  0  0  0  0  0  0  0  0  0
  -34.5627    6.1860  -41.1038 X   0  0  0  0  0  0  0  0  0  0  0  0
  1  2  1  0  0  0  0
  2  3  1  0  0  0  0
  3  4  1  0  0  0  0
  3  5  1  0  0  0  0
  5  6  2  0  0  0  0
  5  7  1  0  0  0  0
  7  8  1  0  0  0  0
  7 12  1  0  0  0  0
  8  9  1  0  0  0  0
  9 10  1  0  0  0  0
 10 11  1  0  0  0  0
 10 13  1  0  0  0  0
 11 12  1  0  0  0  0
M  END
> <Index>
19110

> <PropertyFieldDistance>
nan

$$$$
16895162
BBcorina  12272117083D 1   1.00000     0.00000 
CORINA 4.3.0 0026  30.10.2019
 12 12  0  0  0  0  0  0  0  0999 V2000
  -35.0264   -0.8319  -46.9312 C   0  0  0  0  0  0  0  0  0  0  0  0
  -36.3653    0.0516  -46.0841 S   0  0  0  0  0  0  0  0  0  0  0  0
  -35.5689    1.5954  -45.5616 C   0  0  0  0  0  0  0  0  0  0  0  0
  -36.5687    2.4539  -44.8304 C   0  0  0  0  0  0  0  0  0  0  0  0
  -37.7063    2.0627  -44.6769 O   0  0  0  0  0  0  0  0  0  0  0  0
  -36.1984    3.6564  -44.3471 N   0  0  0  0  0  0  0  0  0  0  0  0
  -37.1582    4.5099  -43.6306 C   0  0  0  0  0  0  0  0  0  0  0  0
  -36.5301    4.9380  -42.3000 C   0  0  0  0  0  0  0  0  0  0  0  0
  -35.2213    5.5540  -42.5557 N   0  0  0  0  0  0  0  0  0  0  0  0
  -34.2878    4.5919  -43.1565 C   0  0  0  0  0  0  0  0  0  0  0  0
  -34.8224    4.1471  -44.5169 C   0  0  0  0  0  0  0  0  0  0  0  0
  -34.5707    6.2272  -41.1247 X   0  0  0  0  0  0  0  0  0  0  0  0
  1  2  1  0  0  0  0
  2  3  1  0  0  0  0
  3  4  1  0  0  0  0
  4  5  2  0  0  0  0
  4  6  1  0  0  0  0
  6  7  1  0  0  0  0
  6 11  1  0  0  0  0
  7  8  1  0  0  0  0
  8  9  1  0  0  0  0
  9 10  1  0  0  0  0
  9 12  1  0  0  0  0
 10 11  1  0  0  0  0
M  END
> <Index>
19115

> <PropertyFieldDistance>
nan

$$$$
10854870
BBcorina  12272117083D 1   1.00000     0.00000 
CORINA 4.3.0 0026  30.10.2019
 16 17  0  0  0  0  0  0  0  0999 V2000
  -34.2541   -1.2972  -47.3693 C   0  0  0  0  0  0  0  0  0  0  0  0
  -34.6070    0.0100  -46.7077 C   0  0  0  0  0  0  0  0  0  0  0  0
  -35.7649    0.2859  -45.9470 C   0  0  0  0  0  0  0  0  0  0  0  0
  -35.6110    1.5946  -45.5790 C   0  0  0  0  0  0  0  0  0  0  0  0
  -34.4372    1.9947  -46.1035 O   0  0  0  0  0  0  0  0  0  0  0  0
  -33.9022    1.1039  -46.7213 N   0  0  0  0  0  0  0  0  0  0  0  0
  -36.5401    2.4023  -44.7664 C   0  0  0  0  0  0  0  0  0  0  0  0
  -37.6278    1.9533  -44.4603 O   0  0  0  0  0  0  0  0  0  0  0  0
  -36.1834    3.6379  -44.3633 N   0  0  0  0  0  0  0  0  0  0  0  0
  -37.1501    4.5124  -43.6856 C   0  0  0  0  0  0  0  0  0  0  0  0
  -36.5422    4.9867  -42.3619 C   0  0  0  0  0  0  0  0  0  0  0  0
  -35.1856    5.6409  -42.6334 C   0  0  0  0  0  0  0  0  0  0  0  0
  -34.2387    4.6145  -43.2595 C   0  0  0  0  0  0  0  0  0  0  0  0
  -34.8201    4.1353  -44.5933 C   0  0  0  0  0  0  0  0  0  0  0  0
  -32.9272    5.2346  -43.4909 N   0  0  0  0  0  0  0  0  0  0  0  0
  -31.6741    4.0760  -43.3839 X   0  0  0  0  0  0  0  0  0  0  0  0
  1  2  1  0  0  0  0
  2  3  1  0  0  0  0
  2  6  2  0  0  0  0
  3  4  2  0  0  0  0
  4  5  1  0  0  0  0
  4  7  1  0  0  0  0
  5  6  1  0  0  0  0
  7  8  2  0  0  0  0
  7  9  1  0  0  0  0
  9 10  1  0  0  0  0
  9 14  1  0  0  0  0
 10 11  1  0  0  0  0
 11 12  1  0  0  0  0
 12 13  1  0  0  0  0
 13 14  1  0  0  0  0
 13 15  1  0  0  0  0
 15 16  1  0  0  0  0
M  END
> <Index>
19139

> <PropertyFieldDistance>
nan

$$$$
10854872
BBcorina  12272117083D 1   1.00000     0.00000 
CORINA 4.3.0 0026  30.10.2019
 14 14  0  0  0  0  0  0  0  0999 V2000
  -39.0882   -2.1996  -47.4413 N   0  0  0  0  0  0  0  0  0  0  0  0
  -38.0759   -1.1593  -47.6670 C   0  0  0  0  0  0  0  0  0  0  0  0
  -37.9279   -0.3238  -46.4215 C   0  0  0  0  0  0  0  0  0  0  0  0
  -38.5995   -0.5707  -45.4424 O   0  0  0  0  0  0  0  0  0  0  0  0
  -37.0491    0.6977  -46.3959 N   0  0  0  0  0  0  0  0  0  0  0  0
  -36.9052    1.5099  -45.1852 C   0  0  0  0  0  0  0  0  0  0  0  0
  -35.8508    2.5933  -45.4202 C   0  0  0  0  0  0  0  0  0  0  0  0
  -35.7064    3.4078  -44.2062 N   0  0  0  0  0  0  0  0  0  0  0  0
  -36.9352    4.1628  -43.9298 C   0  0  0  0  0  0  0  0  0  0  0  0
  -36.8018    4.8830  -42.5862 C   0  0  0  0  0  0  0  0  0  0  0  0
  -35.5994    5.8298  -42.6374 C   0  0  0  0  0  0  0  0  0  0  0  0
  -34.3407    5.0258  -42.9745 C   0  0  0  0  0  0  0  0  0  0  0  0
  -34.5455    4.3014  -44.3069 C   0  0  0  0  0  0  0  0  0  0  0  0
  -39.2879   -3.1726  -48.8332 X   0  0  0  0  0  0  0  0  0  0  0  0
  1  2  1  0  0  0  0
  1 14  1  0  0  0  0
  2  3  1  0  0  0  0
  3  4  2  0  0  0  0
  3  5  1  0  0  0  0
  5  6  1  0  0  0  0
  6  7  1  0  0  0  0
  7  8  1  0  0  0  0
  8  9  1  0  0  0  0
  8 13  1  0  0  0  0
  9 10  1  0  0  0  0
 10 11  1  0  0  0  0
 11 12  1  0  0  0  0
 12 13  1  0  0  0  0
M  END
> <Index>
19142

> <PropertyFieldDistance>
nan

$$$$
13570790
BBcorina  12272117083D 1   1.00000     0.00000 
CORINA 4.3.0 0026  30.10.2019
 14 15  0  0  0  0  0  0  0  0999 V2000
  -35.4272   -0.0790  -47.5888 C   0  0  0  0  0  0  0  0  0  0  0  0
  -36.0395    0.8459  -46.6317 N   0  0  0  0  0  0  0  0  0  0  0  0
  -35.3782    1.7214  -45.8314 C   0  0  0  0  0  0  0  0  0  0  0  0
  -36.3065    2.3885  -45.0991 C   0  0  0  0  0  0  0  0  0  0  0  0
  -37.5707    1.9002  -45.4604 C   0  0  0  0  0  0  0  0  0  0  0  0
  -37.4104    0.9835  -46.3799 N   0  0  0  0  0  0  0  0  0  0  0  0
  -36.0462    3.3882  -44.1429 N   0  0  0  0  0  0  0  0  0  0  0  0
  -37.0815    4.0860  -43.3715 C   0  0  0  0  0  0  0  0  0  0  0  0
  -36.3936    5.3481  -42.8058 C   0  0  0  0  0  0  0  0  0  0  0  0
  -34.9116    4.9085  -42.7661 C   0  0  0  0  0  0  0  0  0  0  0  0
  -34.8173    3.8264  -43.8191 C   0  0  0  0  0  0  0  0  0  0  0  0
  -33.7834    3.4146  -44.3015 O   0  0  0  0  0  0  0  0  0  0  0  0
  -36.8869    5.6557  -41.4567 N   0  0  0  0  0  0  0  0  0  0  0  0
  -36.6736    7.3121  -41.0892 X   0  0  0  0  0  0  0  0  0  0  0  0
  1  2  1  0  0  0  0
  2  3  1  0  0  0  0
  2  6  1  0  0  0  0
  3  4  2  0  0  0  0
  4  5  1  0  0  0  0
  4  7  1  0  0  0  0
  5  6  2  0  0  0  0
  7  8  1  0  0  0  0
  7 11  1  0  0  0  0
  8  9  1  0  0  0  0
  9 10  1  0  0  0  0
  9 13  1  0  0  0  0
 10 11  1  0  0  0  0
 11 12  2  0  0  0  0
 13 14  1  0  0  0  0
M  END
> <Index>
19186

> <PropertyFieldDistance>
nan

$$$$
13476204
BBcorina  12272117083D 1   1.00000     0.00000 
CORINA 4.3.0 0026  30.10.2019
 12 13  0  0  0  0  0  0  0  0999 V2000
  -36.8647    2.4050  -46.9343 O   0  0  0  0  0  0  0  0  0  0  0  0
  -36.1059    1.6538  -45.9847 C   0  0  0  0  0  0  0  0  0  0  0  0
  -36.3933    2.1751  -44.5752 C   0  0  0  0  0  0  0  0  0  0  0  0
  -36.0173    3.5927  -44.4913 N   0  0  0  0  0  0  0  0  0  0  0  0
  -34.6143    1.8047  -46.2898 C   0  0  0  0  0  0  0  0  0  0  0  0
  -34.0115    0.4288  -46.5807 C   0  0  0  0  0  0  0  0  0  0  0  0
  -34.7185   -0.1930  -47.7867 C   0  0  0  0  0  0  0  0  0  0  0  0
  -36.2101   -0.3439  -47.4815 C   0  0  0  0  0  0  0  0  0  0  0  0
  -36.4976    0.1774  -46.0721 C   0  0  0  0  0  0  0  0  0  0  0  0
  -35.6851   -0.6269  -45.0553 C   0  0  0  0  0  0  0  0  0  0  0  0
  -34.1934   -0.4760  -45.3604 C   0  0  0  0  0  0  0  0  0  0  0  0
  -36.3231    4.2164  -42.9287 X   0  0  0  0  0  0  0  0  0  0  0  0
  1  2  1  0  0  0  0
  2  3  1  0  0  0  0
  2  5  1  0  0  0  0
  2  9  1  0  0  0  0
  3  4  1  0  0  0  0
  4 12  1  0  0  0  0
  5  6  1  0  0  0  0
  6  7  1  0  0  0  0
  6 11  1  0  0  0  0
  7  8  1  0  0  0  0
  8  9  1  0  0  0  0
  9 10  1  0  0  0  0
 10 11  1  0  0  0  0
M  END
> <Index>
19188

> <PropertyFieldDistance>
nan

$$$$
13588582
BBcorina  12272117083D 1   1.00000     0.00000 
CORINA 4.3.0 0026  30.10.2019
 12 13  0  0  0  0  0  0  0  0999 V2000
  -36.0008    3.7170  -44.2231 N   0  0  0  0  0  0  0  0  0  0  0  0
  -37.1869    4.5278  -43.8695 C   0  0  0  0  0  0  0  0  0  0  0  0
  -36.4760    4.7969  -42.5309 C   0  0  0  0  0  0  0  0  0  0  0  0
  -35.1655    4.4910  -43.2784 C   0  0  0  0  0  0  0  0  0  0  0  0
  -36.5890    6.2463  -42.0540 C   0  0  0  0  0  0  0  0  0  0  0  0
  -38.0371    6.5985  -41.8460 C   0  0  0  0  0  0  0  0  0  0  0  0
  -38.3404    8.0706  -42.1846 C   0  0  0  0  0  0  0  0  0  0  0  0
  -37.2525    9.0366  -41.6777 C   0  0  0  0  0  0  0  0  0  0  0  0
  -36.7699    8.6864  -40.2961 C   0  0  0  0  0  0  0  0  0  0  0  0
  -35.5160    7.7976  -40.4260 C   0  0  0  0  0  0  0  0  0  0  0  0
  -35.8471    6.4095  -40.7117 C   0  0  0  0  0  0  0  0  0  0  0  0
  -35.5229    4.0031  -45.8398 X   0  0  0  0  0  0  0  0  0  0  0  0
  1  2  1  0  0  0  0
  1  4  1  0  0  0  0
  1 12  1  0  0  0  0
  2  3  1  0  0  0  0
  3  4  1  0  0  0  0
  3  5  1  0  0  0  0
  5  6  1  0  0  0  0
  5 11  1  0  0  0  0
  6  7  1  0  0  0  0
  7  8  1  0  0  0  0
  8  9  1  0  0  0  0
  9 10  1  0  0  0  0
 10 11  1  0  0  0  0
M  END
> <Index>
19196

> <PropertyFieldDistance>
nan

$$$$
13826136
BBcorina  12272117083D 1   1.00000     0.00000 
CORINA 4.3.0 0026  30.10.2019
 12 12  0  0  0  0  0  0  0  0999 V2000
  -38.4501    5.0566  -41.9692 F   0  0  0  0  0  0  0  0  0  0  0  0
  -37.1410    5.0796  -42.4620 C   0  0  0  0  0  0  0  0  0  0  0  0
  -36.9104    6.3162  -43.0741 F   0  0  0  0  0  0  0  0  0  0  0  0
  -36.9911    4.0008  -43.4855 C   0  0  0  0  0  0  0  0  0  0  0  0
  -35.9668    4.1568  -44.4883 N   0  0  0  0  0  0  0  0  0  0  0  0
  -34.6483    3.7685  -43.9577 C   0  0  0  0  0  0  0  0  0  0  0  0
  -33.8401    5.0580  -43.6442 C   0  0  0  0  0  0  0  0  0  0  0  0
  -34.5481    6.0521  -42.7162 C   0  0  0  0  0  0  0  0  0  0  0  0
  -34.9504    5.4492  -41.4494 N   0  0  0  0  0  0  0  0  0  0  0  0
  -36.1827    4.9205  -41.3080 C   0  0  0  0  0  0  0  0  0  0  0  0
  -36.5077    4.3407  -40.2935 O   0  0  0  0  0  0  0  0  0  0  0  0
  -36.3473    3.2653  -45.8969 X   0  0  0  0  0  0  0  0  0  0  0  0
  1  2  1  0  0  0  0
  2  3  1  0  0  0  0
  2  4  1  0  0  0  0
  2 10  1  0  0  0  0
  4  5  1  0  0  0  0
  5  6  1  0  0  0  0
  5 12  1  0  0  0  0
  6  7  1  0  0  0  0
  7  8  1  0  0  0  0
  8  9  1  0  0  0  0
  9 10  1  0  0  0  0
 10 11  2  0  0  0  0
M  END
> <Index>
19212

> <PropertyFieldDistance>
nan

$$$$
16767106
BBcorina  12272117083D 1   1.00000     0.00000 
CORINA 4.3.0 0026  30.10.2019
 12 14  0  0  0  0  0  0  0  0999 V2000
  -35.9588    3.5476  -44.2769 N   0  0  0  0  0  0  0  0  0  0  0  0
  -37.0136    4.4066  -43.7308 C   0  0  0  0  0  0  0  0  0  0  0  0
  -36.5950    5.0004  -42.3761 C   0  0  0  0  0  0  0  0  0  0  0  0
  -35.3391    5.7076  -42.5788 N   0  0  0  0  0  0  0  0  0  0  0  0
  -34.7497    6.3843  -41.4132 C   0  0  0  0  0  0  0  0  0  0  0  0
  -33.2818    6.6035  -41.8416 C   0  0  0  0  0  0  0  0  0  0  0  0
  -32.6849    7.9997  -41.9271 C   0  0  0  0  0  0  0  0  0  0  0  0
  -32.2200    7.0267  -40.8390 C   0  0  0  0  0  0  0  0  0  0  0  0
  -32.9936    5.5387  -42.9197 C   0  0  0  0  0  0  0  0  0  0  0  0
  -34.2938    4.7279  -42.9858 C   0  0  0  0  0  0  0  0  0  0  0  0
  -34.6574    4.2363  -44.3789 C   0  0  0  0  0  0  0  0  0  0  0  0
  -36.4232    2.8909  -45.7859 X   0  0  0  0  0  0  0  0  0  0  0  0
  1  2  1  0  0  0  0
  1 11  1  0  0  0  0
  1 12  1  0  0  0  0
  2  3  1  0  0  0  0
  3  4  1  0  0  0  0
  4  5  1  0  0  0  0
  4 10  1  0  0  0  0
  5  6  1  0  0  0  0
  6  7  1  0  0  0  0
  6  8  1  0  0  0  0
  6  9  1  0  0  0  0
  7  8  1  0  0  0  0
  9 10  1  0  0  0  0
 10 11  1  0  0  0  0
M  END
> <Index>
19219

> <PropertyFieldDistance>
nan

$$$$
13826038
BBcorina  12272117083D 1   1.00000     0.00000 
CORINA 4.3.0 0026  30.10.2019
 12 13  0  0  0  0  0  0  0  0999 V2000
  -37.9508    5.6245  -38.5622 Br  0  0  0  0  0  0  0  0  0  0  0  0
  -37.2321    5.4981  -40.3068 C   0  0  0  0  0  0  0  0  0  0  0  0
  -37.7706    4.8071  -41.3339 C   0  0  0  0  0  0  0  0  0  0  0  0
  -36.9101    4.9908  -42.4304 C   0  0  0  0  0  0  0  0  0  0  0  0
  -37.0576    4.4355  -43.8349 C   0  0  0  0  0  0  0  0  0  0  0  0
  -35.9286    3.5122  -44.0544 N   0  0  0  0  0  0  0  0  0  0  0  0
  -34.7049    4.1961  -44.4123 C   0  0  0  0  0  0  0  0  0  0  0  0
  -33.9862    4.9291  -43.3056 C   0  0  0  0  0  0  0  0  0  0  0  0
  -34.7478    6.2054  -42.9117 C   0  0  0  0  0  0  0  0  0  0  0  0
  -35.9009    5.7721  -42.0217 C   0  0  0  0  0  0  0  0  0  0  0  0
  -36.0971    6.0824  -40.7348 O   0  0  0  0  0  0  0  0  0  0  0  0
  -35.6906    2.5006  -42.6964 X   0  0  0  0  0  0  0  0  0  0  0  0
  1  2  1  0  0  0  0
  2  3  2  0  0  0  0
  2 11  1  0  0  0  0
  3  4  1  0  0  0  0
  4  5  1  0  0  0  0
  4 10  2  0  0  0  0
  5  6  1  0  0  0  0
  6  7  1  0  0  0  0
  6 12  1  0  0  0  0
  7  8  1  0  0  0  0
  8  9  1  0  0  0  0
  9 10  1  0  0  0  0
 10 11  1  0  0  0  0
M  END
> <Index>
19253

> <PropertyFieldDistance>
nan

$$$$
14577550
BBcorina  12272117083D 1   1.00000     0.00000 
CORINA 4.3.0 0026  30.10.2019
 15 16  0  0  0  0  0  0  0  0999 V2000
  -37.5476    5.2040  -41.3538 C   0  0  0  0  0  0  0  0  0  0  0  0
  -36.5938    5.2074  -42.5501 C   0  0  0  0  0  0  0  0  0  0  0  0
  -36.9775    4.0807  -43.5123 C   0  0  0  0  0  0  0  0  0  0  0  0
  -36.0361    4.0617  -44.6405 N   0  0  0  0  0  0  0  0  0  0  0  0
  -34.6594    3.8534  -44.1706 C   0  0  0  0  0  0  0  0  0  0  0  0
  -34.2756    4.9801  -43.2084 C   0  0  0  0  0  0  0  0  0  0  0  0
  -35.2171    4.9990  -42.0801 N   0  0  0  0  0  0  0  0  0  0  0  0
  -34.8567    5.9674  -41.1453 C   0  0  0  0  0  0  0  0  0  0  0  0
  -34.8604    7.3203  -41.4796 C   0  0  0  0  0  0  0  0  0  0  0  0
  -34.5024    8.2485  -40.5236 C   0  0  0  0  0  0  0  0  0  0  0  0
  -34.1594    7.8700  -39.3070 N   0  0  0  0  0  0  0  0  0  0  0  0
  -34.1429    6.5989  -38.9500 C   0  0  0  0  0  0  0  0  0  0  0  0
  -34.4879    5.6080  -39.8471 C   0  0  0  0  0  0  0  0  0  0  0  0
  -34.4692    4.3095  -39.4746 F   0  0  0  0  0  0  0  0  0  0  0  0
  -36.4783    2.8732  -45.7878 X   0  0  0  0  0  0  0  0  0  0  0  0
  1  2  1  0  0  0  0
  2  3  1  0  0  0  0
  2  7  1  0  0  0  0
  3  4  1  0  0  0  0
  4  5  1  0  0  0  0
  4 15  1  0  0  0  0
  5  6  1  0  0  0  0
  6  7  1  0  0  0  0
  7  8  1  0  0  0  0
  8  9  2  0  0  0  0
  8 13  1  0  0  0  0
  9 10  1  0  0  0  0
 10 11  2  0  0  0  0
 11 12  1  0  0  0  0
 12 13  2  0  0  0  0
 13 14  1  0  0  0  0
M  END
> <Index>
19254

> <PropertyFieldDistance>
nan

$$$$
14417056
BBcorina  12272117083D 1   1.00000     0.00000 
CORINA 4.3.0 0026  30.10.2019
 11 12  0  0  0  0  0  0  0  0999 V2000
  -35.9991    3.9205  -44.5790 N   0  0  0  0  0  0  0  0  0  0  0  0
  -36.9902    4.0620  -43.5124 C   0  0  0  0  0  0  0  0  0  0  0  0
  -36.6648    5.2320  -42.5657 C   0  0  0  0  0  0  0  0  0  0  0  0
  -35.2639    4.9963  -42.0489 C   0  0  0  0  0  0  0  0  0  0  0  0
  -34.6318    5.9783  -41.2081 O   0  0  0  0  0  0  0  0  0  0  0  0
  -33.3071    5.9215  -41.5066 C   0  0  0  0  0  0  0  0  0  0  0  0
  -32.4432    6.4431  -40.8313 O   0  0  0  0  0  0  0  0  0  0  0  0
  -33.0528    5.2190  -42.6419 O   0  0  0  0  0  0  0  0  0  0  0  0
  -34.3261    5.0516  -43.2911 C   0  0  0  0  0  0  0  0  0  0  0  0
  -34.6071    3.7975  -44.0895 C   0  0  0  0  0  0  0  0  0  0  0  0
  -36.3994    2.6242  -45.6198 X   0  0  0  0  0  0  0  0  0  0  0  0
  1  2  1  0  0  0  0
  1 10  1  0  0  0  0
  1 11  1  0  0  0  0
  2  3  1  0  0  0  0
  3  4  1  0  0  0  0
  4  5  1  0  0  0  0
  4  9  1  0  0  0  0
  5  6  1  0  0  0  0
  6  7  2  0  0  0  0
  6  8  1  0  0  0  0
  8  9  1  0  0  0  0
  9 10  1  0  0  0  0
M  END
> <Index>
19261

> <PropertyFieldDistance>
nan

$$$$
15757612
BBcorina  12272117083D 1   1.00000     0.00000 
CORINA 4.3.0 0026  30.10.2019
  8  8  0  0  0  0  0  0  0  0999 V2000
  -37.3634    5.7767  -44.7356 C   0  0  0  0  0  0  0  0  0  0  0  0
  -37.1869    4.5279  -43.8695 C   0  0  0  0  0  0  0  0  0  0  0  0
  -36.4760    4.7969  -42.5309 C   0  0  0  0  0  0  0  0  0  0  0  0
  -35.1655    4.4909  -43.2784 C   0  0  0  0  0  0  0  0  0  0  0  0
  -34.1848    3.6326  -42.4771 C   0  0  0  0  0  0  0  0  0  0  0  0
  -32.9614    3.5025  -43.2042 O   0  0  0  0  0  0  0  0  0  0  0  0
  -36.0008    3.7170  -44.2231 N   0  0  0  0  0  0  0  0  0  0  0  0
  -35.5228    4.0031  -45.8398 X   0  0  0  0  0  0  0  0  0  0  0  0
  1  2  1  0  0  0  0
  2  3  1  0  0  0  0
  2  7  1  0  0  0  0
  3  4  1  0  0  0  0
  4  5  1  0  0  0  0
  4  7  1  0  0  0  0
  5  6  1  0  0  0  0
  7  8  1  0  0  0  0
M  END
> <Index>
19269

> <PropertyFieldDistance>
nan

$$$$
14796502
BBcorina  12272117083D 1   1.00000     0.00000 
CORINA 4.3.0 0026  30.10.2019
  9 11  0  0  0  0  0  0  0  0999 V2000
  -35.2754    1.9070  -41.9413 N   0  0  0  0  0  0  0  0  0  0  0  0
  -36.0593    2.4291  -43.0687 C   0  0  0  0  0  0  0  0  0  0  0  0
  -36.1908    3.9751  -42.9985 C   0  0  0  0  0  0  0  0  0  0  0  0
  -36.2930    4.4568  -44.4556 C   0  0  0  0  0  0  0  0  0  0  0  0
  -36.2300    3.1532  -45.3330 C   0  0  0  0  0  0  0  0  0  0  0  0
  -35.2753    2.2917  -44.4230 C   0  0  0  0  0  0  0  0  0  0  0  0
  -34.0896    3.2796  -44.1067 C   0  0  0  0  0  0  0  0  0  0  0  0
  -34.9285    4.5374  -43.6739 C   0  0  0  0  0  0  0  0  0  0  0  0
  -35.6634    0.2708  -41.6308 X   0  0  0  0  0  0  0  0  0  0  0  0
  1  2  1  0  0  0  0
  1  9  1  0  0  0  0
  2  3  1  0  0  0  0
  2  6  1  0  0  0  0
  3  4  1  0  0  0  0
  3  8  1  0  0  0  0
  4  5  1  0  0  0  0
  4  8  1  0  0  0  0
  5  6  1  0  0  0  0
  6  7  1  0  0  0  0
  7  8  1  0  0  0  0
M  END
> <Index>
19288

> <PropertyFieldDistance>
nan

$$$$
14416962
BBcorina  12272117083D 1   1.00000     0.00000 
CORINA 4.3.0 0026  30.10.2019
 12 12  0  0  0  0  0  0  0  0999 V2000
  -37.7225    0.4281  -45.0053 C   0  0  0  0  0  0  0  0  0  0  0  0
  -37.5271    1.8058  -44.5904 O   0  0  0  0  0  0  0  0  0  0  0  0
  -36.2666    2.2784  -44.6143 C   0  0  0  0  0  0  0  0  0  0  0  0
  -35.3548    1.5593  -44.9722 O   0  0  0  0  0  0  0  0  0  0  0  0
  -36.0161    3.5490  -44.2413 N   0  0  0  0  0  0  0  0  0  0  0  0
  -37.0870    4.4040  -43.7070 C   0  0  0  0  0  0  0  0  0  0  0  0
  -36.6077    5.0164  -42.3866 C   0  0  0  0  0  0  0  0  0  0  0  0
  -35.3220    5.6933  -42.6027 N   0  0  0  0  0  0  0  0  0  0  0  0
  -34.2808    4.7415  -43.0125 C   0  0  0  0  0  0  0  0  0  0  0  0
  -34.6648    4.1178  -44.3585 C   0  0  0  0  0  0  0  0  0  0  0  0
  -33.6704    3.0108  -44.7143 C   0  0  0  0  0  0  0  0  0  0  0  0
  -34.8446    6.5614  -41.2089 X   0  0  0  0  0  0  0  0  0  0  0  0
  1  2  1  0  0  0  0
  2  3  1  0  0  0  0
  3  4  2  0  0  0  0
  3  5  1  0  0  0  0
  5  6  1  0  0  0  0
  5 10  1  0  0  0  0
  6  7  1  0  0  0  0
  7  8  1  0  0  0  0
  8  9  1  0  0  0  0
  8 12  1  0  0  0  0
  9 10  1  0  0  0  0
 10 11  1  0  0  0  0
M  END
> <Index>
19296

> <PropertyFieldDistance>
nan

$$$$
14425462
BBcorina  12272117083D 1   1.00000     0.00000 
CORINA 4.3.0 0026  30.10.2019
 11 12  0  0  0  0  0  0  0  0999 V2000
  -32.2437    2.8861  -42.9005 N   0  0  0  0  0  0  0  0  0  0  0  0
  -33.6135    3.2114  -42.4812 C   0  0  0  0  0  0  0  0  0  0  0  0
  -34.1964    4.3329  -43.3838 C   0  0  0  0  0  0  0  0  0  0  0  0
  -35.6677    3.9279  -43.5273 C   0  0  0  0  0  0  0  0  0  0  0  0
  -36.3885    4.4783  -44.7443 C   0  0  0  0  0  0  0  0  0  0  0  0
  -37.8111    3.8955  -44.7339 C   0  0  0  0  0  0  0  0  0  0  0  0
  -37.7904    2.3700  -44.7423 C   0  0  0  0  0  0  0  0  0  0  0  0
  -36.9466    1.8127  -43.5840 C   0  0  0  0  0  0  0  0  0  0  0  0
  -35.5524    2.3920  -43.7235 C   0  0  0  0  0  0  0  0  0  0  0  0
  -34.5333    1.9788  -42.6670 C   0  0  0  0  0  0  0  0  0  0  0  0
  -32.2000    2.4236  -44.5462 X   0  0  0  0  0  0  0  0  0  0  0  0
  1  2  1  0  0  0  0
  1 11  1  0  0  0  0
  2  3  1  0  0  0  0
  2 10  1  0  0  0  0
  3  4  1  0  0  0  0
  4  5  1  0  0  0  0
  4  9  1  0  0  0  0
  5  6  1  0  0  0  0
  6  7  1  0  0  0  0
  7  8  1  0  0  0  0
  8  9  1  0  0  0  0
  9 10  1  0  0  0  0
M  END
> <Index>
19299

> <PropertyFieldDistance>
nan

$$$$
13825894
BBcorina  12272117083D 1   1.00000     0.00000 
CORINA 4.3.0 0026  30.10.2019
 10 10  0  0  0  0  0  0  0  0999 V2000
  -35.6324    6.7561  -43.6896 C   0  0  0  0  0  0  0  0  0  0  0  0
  -35.7865    5.9823  -42.3787 C   0  0  0  0  0  0  0  0  0  0  0  0
  -35.9855    6.9657  -41.2237 C   0  0  0  0  0  0  0  0  0  0  0  0
  -37.0076    5.0427  -42.4737 C   0  0  0  0  0  0  0  0  0  0  0  0
  -37.0618    4.3630  -43.7713 C   0  0  0  0  0  0  0  0  0  0  0  0
  -35.8719    3.5214  -44.0169 N   0  0  0  0  0  0  0  0  0  0  0  0
  -34.7685    4.3346  -44.4698 C   0  0  0  0  0  0  0  0  0  0  0  0
  -33.8775    4.8019  -43.3060 C   0  0  0  0  0  0  0  0  0  0  0  0
  -34.6352    5.2140  -42.1485 O   0  0  0  0  0  0  0  0  0  0  0  0
  -36.2203    2.2804  -45.1406 X   0  0  0  0  0  0  0  0  0  0  0  0
  1  2  1  0  0  0  0
  2  3  1  0  0  0  0
  2  4  1  0  0  0  0
  2  9  1  0  0  0  0
  4  5  1  0  0  0  0
  5  6  1  0  0  0  0
  6  7  1  0  0  0  0
  6 10  1  0  0  0  0
  7  8  1  0  0  0  0
  8  9  1  0  0  0  0
M  END
> <Index>
19304

> <PropertyFieldDistance>
nan

$$$$
13818108
BBcorina  12272117083D 1   1.00000     0.00000 
CORINA 4.3.0 0026  30.10.2019
 13 14  0  0  0  0  0  0  0  0999 V2000
  -35.9479    3.4664  -44.1723 N   0  0  0  0  0  0  0  0  0  0  0  0
  -37.0290    4.3869  -43.7977 C   0  0  0  0  0  0  0  0  0  0  0  0
  -36.6587    5.1099  -42.5007 C   0  0  0  0  0  0  0  0  0  0  0  0
  -35.3534    5.8832  -42.7080 C   0  0  0  0  0  0  0  0  0  0  0  0
  -34.9458    6.5588  -41.3972 C   0  0  0  0  0  0  0  0  0  0  0  0
  -33.7303    7.4182  -41.6318 C   0  0  0  0  0  0  0  0  0  0  0  0
  -33.7301    8.6937  -42.0838 C   0  0  0  0  0  0  0  0  0  0  0  0
  -32.4012    9.1235  -42.1588 C   0  0  0  0  0  0  0  0  0  0  0  0
  -31.6311    8.1414  -41.7660 N   0  0  0  0  0  0  0  0  0  0  0  0
  -32.4472    7.0556  -41.4233 N   0  0  0  0  0  0  0  0  0  0  0  0
  -34.2558    4.9088  -43.1443 C   0  0  0  0  0  0  0  0  0  0  0  0
  -34.6959    4.1916  -44.4227 C   0  0  0  0  0  0  0  0  0  0  0  0
  -36.3899    2.5210  -45.5269 X   0  0  0  0  0  0  0  0  0  0  0  0
  1  2  1  0  0  0  0
  1 12  1  0  0  0  0
  1 13  1  0  0  0  0
  2  3  1  0  0  0  0
  3  4  1  0  0  0  0
  4  5  1  0  0  0  0
  4 11  1  0  0  0  0
  5  6  1  0  0  0  0
  6  7  2  0  0  0  0
  6 10  1  0  0  0  0
  7  8  1  0  0  0  0
  8  9  2  0  0  0  0
  9 10  1  0  0  0  0
 11 12  1  0  0  0  0
M  END
> <Index>
19308

> <PropertyFieldDistance>
nan

$$$$
14471854
BBcorina  12272117083D 1   1.00000     0.00000 
CORINA 4.3.0 0026  30.10.2019
 12 13  0  0  0  0  0  0  0  0999 V2000
  -37.7029    6.0169  -42.1424 O   0  0  0  0  0  0  0  0  0  0  0  0
  -36.6596    5.1071  -42.4970 C   0  0  0  0  0  0  0  0  0  0  0  0
  -37.0259    4.3918  -43.7994 C   0  0  0  0  0  0  0  0  0  0  0  0
  -35.9488    3.4663  -44.1732 N   0  0  0  0  0  0  0  0  0  0  0  0
  -34.6924    4.1866  -44.4203 C   0  0  0  0  0  0  0  0  0  0  0  0
  -34.2607    4.9118  -43.1479 C   0  0  0  0  0  0  0  0  0  0  0  0
  -33.9697    3.8936  -42.0354 C   0  0  0  0  0  0  0  0  0  0  0  0
  -32.4862    4.0773  -41.6510 C   0  0  0  0  0  0  0  0  0  0  0  0
  -32.1590    5.5291  -42.0811 C   0  0  0  0  0  0  0  0  0  0  0  0
  -32.9524    5.6821  -43.4033 C   0  0  0  0  0  0  0  0  0  0  0  0
  -35.3520    5.8803  -42.6952 C   0  0  0  0  0  0  0  0  0  0  0  0
  -36.3928    2.5253  -45.5301 X   0  0  0  0  0  0  0  0  0  0  0  0
  1  2  1  0  0  0  0
  2  3  1  0  0  0  0
  2 11  1  0  0  0  0
  3  4  1  0  0  0  0
  4  5  1  0  0  0  0
  4 12  1  0  0  0  0
  5  6  1  0  0  0  0
  6  7  1  0  0  0  0
  6 10  1  0  0  0  0
  6 11  1  0  0  0  0
  7  8  1  0  0  0  0
  8  9  1  0  0  0  0
  9 10  1  0  0  0  0
M  END
> <Index>
19326

> <PropertyFieldDistance>
nan

$$$$
13574734
BBcorina  12272117083D 1   1.00000     0.00000 
CORINA 4.3.0 0026  30.10.2019
 14 15  0  0  0  0  0  0  0  0999 V2000
  -37.6961   -0.4370  -48.6388 I   0  0  0  0  0  0  0  0  0  0  0  0
  -37.1138    0.8159  -47.0639 C   0  0  0  0  0  0  0  0  0  0  0  0
  -35.8613    0.6723  -46.4946 C   0  0  0  0  0  0  0  0  0  0  0  0
  -35.4746    1.4964  -45.4560 C   0  0  0  0  0  0  0  0  0  0  0  0
  -36.3448    2.4706  -44.9835 C   0  0  0  0  0  0  0  0  0  0  0  0
  -37.6038    2.6088  -45.5538 C   0  0  0  0  0  0  0  0  0  0  0  0
  -37.9824    1.7854  -46.5958 C   0  0  0  0  0  0  0  0  0  0  0  0
  -35.9566    3.3058  -43.9331 N   0  0  0  0  0  0  0  0  0  0  0  0
  -37.0241    4.2576  -43.5950 C   0  0  0  0  0  0  0  0  0  0  0  0
  -36.5917    5.0987  -42.3916 C   0  0  0  0  0  0  0  0  0  0  0  0
  -35.3434    5.8041  -42.7135 N   0  0  0  0  0  0  0  0  0  0  0  0
  -34.2760    4.8524  -43.0515 C   0  0  0  0  0  0  0  0  0  0  0  0
  -34.7084    4.0114  -44.2549 C   0  0  0  0  0  0  0  0  0  0  0  0
  -34.8684    6.8265  -41.4277 X   0  0  0  0  0  0  0  0  0  0  0  0
  1  2  1  0  0  0  0
  2  3  2  0  0  0  0
  2  7  1  0  0  0  0
  3  4  1  0  0  0  0
  4  5  2  0  0  0  0
  5  6  1  0  0  0  0
  5  8  1  0  0  0  0
  6  7  2  0  0  0  0
  8  9  1  0  0  0  0
  8 13  1  0  0  0  0
  9 10  1  0  0  0  0
 10 11  1  0  0  0  0
 11 12  1  0  0  0  0
 11 14  1  0  0  0  0
 12 13  1  0  0  0  0
M  END
> <Index>
19334

> <PropertyFieldDistance>
nan

$$$$
11949914
BBcorina  12272117083D 1   1.00000     0.00000 
CORINA 4.3.0 0026  30.10.2019
 12 14  0  0  0  0  0  0  0  0999 V2000
  -35.9864    3.9286  -44.6355 N   0  0  0  0  0  0  0  0  0  0  0  0
  -37.0715    4.1512  -43.6455 C   0  0  0  0  0  0  0  0  0  0  0  0
  -36.4320    5.0389  -42.5561 C   0  0  0  0  0  0  0  0  0  0  0  0
  -34.9149    4.7738  -42.6649 C   0  0  0  0  0  0  0  0  0  0  0  0
  -34.7677    3.7443  -43.8059 C   0  0  0  0  0  0  0  0  0  0  0  0
  -34.4198    4.1481  -41.3601 C   0  0  0  0  0  0  0  0  0  0  0  0
  -35.1504    2.8283  -41.1142 C   0  0  0  0  0  0  0  0  0  0  0  0
  -36.6550    3.0861  -41.0126 C   0  0  0  0  0  0  0  0  0  0  0  0
  -36.9294    4.5813  -41.1841 C   0  0  0  0  0  0  0  0  0  0  0  0
  -36.1995    5.3614  -40.0892 C   0  0  0  0  0  0  0  0  0  0  0  0
  -34.6910    5.1052  -40.1980 C   0  0  0  0  0  0  0  0  0  0  0  0
  -36.2978    2.5403  -45.5841 X   0  0  0  0  0  0  0  0  0  0  0  0
  1  2  1  0  0  0  0
  1  5  1  0  0  0  0
  1 12  1  0  0  0  0
  2  3  1  0  0  0  0
  3  4  1  0  0  0  0
  3  9  1  0  0  0  0
  4  5  1  0  0  0  0
  4  6  1  0  0  0  0
  6  7  1  0  0  0  0
  6 11  1  0  0  0  0
  7  8  1  0  0  0  0
  8  9  1  0  0  0  0
  9 10  1  0  0  0  0
 10 11  1  0  0  0  0
M  END
> <Index>
19347

> <PropertyFieldDistance>
nan

$$$$
12220394
BBcorina  12272117083D 1   1.00000     0.00000 
CORINA 4.3.0 0026  30.10.2019
 11 11  0  0  0  0  0  0  0  0999 V2000
  -36.2033    2.3450  -44.8637 C   0  0  0  0  0  0  0  0  0  0  0  0
  -35.9072    3.4148  -43.9017 N   0  0  0  0  0  0  0  0  0  0  0  0
  -37.1465    4.0981  -43.4705 C   0  0  0  0  0  0  0  0  0  0  0  0
  -36.8857    5.4064  -42.7027 C   0  0  0  0  0  0  0  0  0  0  0  0
  -35.7574    5.2907  -41.7129 C   0  0  0  0  0  0  0  0  0  0  0  0
  -34.4414    5.7118  -42.4045 C   0  0  0  0  0  0  0  0  0  0  0  0
  -33.9298    4.6597  -43.2759 C   0  0  0  0  0  0  0  0  0  0  0  0
  -32.6016    5.1203  -43.8797 C   0  0  0  0  0  0  0  0  0  0  0  0
  -31.9973    4.0145  -44.6346 N   0  0  0  0  0  0  0  0  0  0  0  0
  -34.9023    4.3137  -44.4186 C   0  0  0  0  0  0  0  0  0  0  0  0
  -30.5074    4.4878  -45.3277 X   0  0  0  0  0  0  0  0  0  0  0  0
  1  2  1  0  0  0  0
  2  3  1  0  0  0  0
  2 10  1  0  0  0  0
  3  4  1  0  0  0  0
  4  5  1  0  0  0  0
  5  6  1  0  0  0  0
  6  7  1  0  0  0  0
  7  8  1  0  0  0  0
  7 10  1  0  0  0  0
  8  9  1  0  0  0  0
  9 11  1  0  0  0  0
M  END
> <Index>
19394

> <PropertyFieldDistance>
nan

$$$$
17600860
BBcorina  12272117083D 1   1.00000     0.00000 
CORINA 4.3.0 0026  30.10.2019
 13 13  0  0  0  0  0  0  0  0999 V2000
  -34.9581    7.3878  -42.6287 C   0  0  0  0  0  0  0  0  0  0  0  0
  -35.3157    6.0310  -43.1786 C   0  0  0  0  0  0  0  0  0  0  0  0
  -36.6580    5.6762  -43.3727 C   0  0  0  0  0  0  0  0  0  0  0  0
  -36.9696    4.4555  -43.8676 C   0  0  0  0  0  0  0  0  0  0  0  0
  -38.4147    4.0815  -44.0740 C   0  0  0  0  0  0  0  0  0  0  0  0
  -35.9939    3.5648  -44.1804 N   0  0  0  0  0  0  0  0  0  0  0  0
  -36.3578    2.2499  -44.7141 C   0  0  0  0  0  0  0  0  0  0  0  0
  -34.6955    3.8760  -44.0053 C   0  0  0  0  0  0  0  0  0  0  0  0
  -33.8297    3.0644  -44.2913 O   0  0  0  0  0  0  0  0  0  0  0  0
  -34.3367    5.1367  -43.4984 C   0  0  0  0  0  0  0  0  0  0  0  0
  -32.8856    5.4949  -43.3054 C   0  0  0  0  0  0  0  0  0  0  0  0
  -32.4270    4.9949  -42.0025 N   0  0  0  0  0  0  0  0  0  0  0  0
  -30.7814    5.3809  -41.7428 X   0  0  0  0  0  0  0  0  0  0  0  0
  1  2  1  0  0  0  0
  2  3  1  0  0  0  0
  2 10  2  0  0  0  0
  3  4  2  0  0  0  0
  4  5  1  0  0  0  0
  4  6  1  0  0  0  0
  6  7  1  0  0  0  0
  6  8  1  0  0  0  0
  8  9  2  0  0  0  0
  8 10  1  0  0  0  0
 10 11  1  0  0  0  0
 11 12  1  0  0  0  0
 12 13  1  0  0  0  0
M  END
> <Index>
19395

> <PropertyFieldDistance>
nan

$$$$
11685994
BBcorina  12272117083D 1   1.00000     0.00000 
CORINA 4.3.0 0026  30.10.2019
 10 10  0  0  0  0  0  0  0  0999 V2000
  -36.5200    0.9526  -46.8904 N   0  0  0  0  0  0  0  0  0  0  0  0
  -36.3430    2.2273  -46.1821 C   0  0  0  0  0  0  0  0  0  0  0  0
  -36.1389    1.9574  -44.6899 C   0  0  0  0  0  0  0  0  0  0  0  0
  -35.9623    3.2285  -43.9834 N   0  0  0  0  0  0  0  0  0  0  0  0
  -37.0595    4.0155  -43.4079 C   0  0  0  0  0  0  0  0  0  0  0  0
  -36.4778    5.4273  -43.1734 C   0  0  0  0  0  0  0  0  0  0  0  0
  -34.9683    5.1259  -43.0262 C   0  0  0  0  0  0  0  0  0  0  0  0
  -34.7743    3.8273  -43.7776 C   0  0  0  0  0  0  0  0  0  0  0  0
  -33.7038    3.3890  -44.1424 O   0  0  0  0  0  0  0  0  0  0  0  0
  -36.7518    1.2093  -48.5650 X   0  0  0  0  0  0  0  0  0  0  0  0
  1  2  1  0  0  0  0
  1 10  1  0  0  0  0
  2  3  1  0  0  0  0
  3  4  1  0  0  0  0
  4  5  1  0  0  0  0
  4  8  1  0  0  0  0
  5  6  1  0  0  0  0
  6  7  1  0  0  0  0
  7  8  1  0  0  0  0
  8  9  2  0  0  0  0
M  END
> <Index>
19406

> <PropertyFieldDistance>
nan

$$$$
6741528
BBcorina  12272117083D 1   1.00000     0.00000 
CORINA 4.3.0 0026  30.10.2019
 13 13  0  0  0  0  0  0  0  0999 V2000
  -38.3323   -1.0915  -47.5355 C   0  0  0  0  0  0  0  0  0  0  0  0
  -38.1609   -0.2753  -46.3261 N   0  0  0  0  0  0  0  0  0  0  0  0
  -37.0592    0.6826  -46.4894 C   0  0  0  0  0  0  0  0  0  0  0  0
  -36.9117    1.5126  -45.2125 C   0  0  0  0  0  0  0  0  0  0  0  0
  -36.5164    0.6619  -44.1344 O   0  0  0  0  0  0  0  0  0  0  0  0
  -35.8491    2.5925  -45.4261 C   0  0  0  0  0  0  0  0  0  0  0  0
  -35.7048    3.3869  -44.1989 N   0  0  0  0  0  0  0  0  0  0  0  0
  -36.9290    4.1511  -43.9190 C   0  0  0  0  0  0  0  0  0  0  0  0
  -36.7574    4.9159  -42.6038 C   0  0  0  0  0  0  0  0  0  0  0  0
  -35.6034    5.7558  -42.6938 O   0  0  0  0  0  0  0  0  0  0  0  0
  -34.3929    5.0441  -42.9650 C   0  0  0  0  0  0  0  0  0  0  0  0
  -34.5407    4.2807  -44.2838 C   0  0  0  0  0  0  0  0  0  0  0  0
  -37.9167   -1.2616  -44.9508 X   0  0  0  0  0  0  0  0  0  0  0  0
  1  2  1  0  0  0  0
  2  3  1  0  0  0  0
  2 13  1  0  0  0  0
  3  4  1  0  0  0  0
  4  5  1  0  0  0  0
  4  6  1  0  0  0  0
  6  7  1  0  0  0  0
  7  8  1  0  0  0  0
  7 12  1  0  0  0  0
  8  9  1  0  0  0  0
  9 10  1  0  0  0  0
 10 11  1  0  0  0  0
 11 12  1  0  0  0  0
M  END
> <Index>
19422

> <PropertyFieldDistance>
nan

$$$$
13652194
BBcorina  12272117083D 1   1.00000     0.00000 
CORINA 4.3.0 0026  30.10.2019
 13 14  0  0  0  0  0  0  0  0999 V2000
  -33.8604    9.8362  -40.9013 C   0  0  0  0  0  0  0  0  0  0  0  0
  -34.3379    8.4105  -40.7984 C   0  0  0  0  0  0  0  0  0  0  0  0
  -34.6937    7.7449  -39.6207 C   0  0  0  0  0  0  0  0  0  0  0  0
  -35.0550    6.5268  -39.9330 N   0  0  0  0  0  0  0  0  0  0  0  0
  -34.9404    6.3786  -41.3213 N   0  0  0  0  0  0  0  0  0  0  0  0
  -34.4986    7.5483  -41.8289 C   0  0  0  0  0  0  0  0  0  0  0  0
  -35.2462    5.1676  -42.0870 C   0  0  0  0  0  0  0  0  0  0  0  0
  -36.6793    5.2476  -42.6202 C   0  0  0  0  0  0  0  0  0  0  0  0
  -36.9723    4.0087  -43.4695 C   0  0  0  0  0  0  0  0  0  0  0  0
  -36.0191    3.9414  -44.5845 N   0  0  0  0  0  0  0  0  0  0  0  0
  -34.6396    3.8164  -44.0970 C   0  0  0  0  0  0  0  0  0  0  0  0
  -34.2770    5.0496  -43.2665 C   0  0  0  0  0  0  0  0  0  0  0  0
  -36.4111    2.6621  -45.6494 X   0  0  0  0  0  0  0  0  0  0  0  0
  1  2  1  0  0  0  0
  2  3  1  0  0  0  0
  2  6  2  0  0  0  0
  3  4  2  0  0  0  0
  4  5  1  0  0  0  0
  5  6  1  0  0  0  0
  5  7  1  0  0  0  0
  7  8  1  0  0  0  0
  7 12  1  0  0  0  0
  8  9  1  0  0  0  0
  9 10  1  0  0  0  0
 10 11  1  0  0  0  0
 10 13  1  0  0  0  0
 11 12  1  0  0  0  0
M  END
> <Index>
19446

> <PropertyFieldDistance>
nan

$$$$
10464160
BBcorina  12272117083D 1   1.00000     0.00000 
CORINA 4.3.0 0026  30.10.2019
 11 11  0  0  0  0  0  0  0  0999 V2000
  -32.1192    5.3373  -44.3531 C   0  0  0  0  0  0  0  0  0  0  0  0
  -32.9443    5.3807  -43.1385 N   0  0  0  0  0  0  0  0  0  0  0  0
  -34.3637    5.1789  -43.4589 C   0  0  0  0  0  0  0  0  0  0  0  0
  -35.2066    5.3461  -42.1888 C   0  0  0  0  0  0  0  0  0  0  0  0
  -36.6856    5.3168  -42.5824 C   0  0  0  0  0  0  0  0  0  0  0  0
  -36.9538    4.1383  -43.4737 C   0  0  0  0  0  0  0  0  0  0  0  0
  -38.1024    3.7750  -43.6148 O   0  0  0  0  0  0  0  0  0  0  0  0
  -35.9968    3.4696  -44.1181 N   0  0  0  0  0  0  0  0  0  0  0  0
  -36.4005    2.3685  -44.9961 C   0  0  0  0  0  0  0  0  0  0  0  0
  -34.5742    3.7657  -44.0038 C   0  0  0  0  0  0  0  0  0  0  0  0
  -32.4061    4.2334  -41.9905 X   0  0  0  0  0  0  0  0  0  0  0  0
  1  2  1  0  0  0  0
  2  3  1  0  0  0  0
  2 11  1  0  0  0  0
  3  4  1  0  0  0  0
  3 10  1  0  0  0  0
  4  5  1  0  0  0  0
  5  6  1  0  0  0  0
  6  7  2  0  0  0  0
  6  8  1  0  0  0  0
  8  9  1  0  0  0  0
  8 10  1  0  0  0  0
M  END
> <Index>
19452

> <PropertyFieldDistance>
nan

$$$$
10427796
BBcorina  12272117083D 1   1.00000     0.00000 
CORINA 4.3.0 0026  30.10.2019
 11 12  0  0  0  0  0  0  0  0999 V2000
  -36.3438    2.3495  -44.9373 C   0  0  0  0  0  0  0  0  0  0  0  0
  -36.0225    3.6569  -44.3497 N   0  0  0  0  0  0  0  0  0  0  0  0
  -36.9760    4.0071  -43.2970 C   0  0  0  0  0  0  0  0  0  0  0  0
  -36.6754    5.3861  -42.6825 C   0  0  0  0  0  0  0  0  0  0  0  0
  -35.2441    5.3420  -42.1896 C   0  0  0  0  0  0  0  0  0  0  0  0
  -34.6541    6.6148  -41.5993 C   0  0  0  0  0  0  0  0  0  0  0  0
  -33.2180    6.6111  -41.9864 N   0  0  0  0  0  0  0  0  0  0  0  0
  -32.9707    5.4239  -42.8546 C   0  0  0  0  0  0  0  0  0  0  0  0
  -34.3471    5.1268  -43.4469 C   0  0  0  0  0  0  0  0  0  0  0  0
  -34.6098    3.7113  -43.9198 C   0  0  0  0  0  0  0  0  0  0  0  0
  -32.2110    6.5803  -40.6047 X   0  0  0  0  0  0  0  0  0  0  0  0
  1  2  1  0  0  0  0
  2  3  1  0  0  0  0
  2 10  1  0  0  0  0
  3  4  1  0  0  0  0
  4  5  1  0  0  0  0
  5  6  1  0  0  0  0
  5  9  1  0  0  0  0
  6  7  1  0  0  0  0
  7  8  1  0  0  0  0
  7 11  1  0  0  0  0
  8  9  1  0  0  0  0
  9 10  1  0  0  0  0
M  END
> <Index>
19453

> <PropertyFieldDistance>
nan

$$$$
12129620
BBcorina  12272117083D 1   1.00000     0.00000 
CORINA 4.3.0 0026  30.10.2019
 12 12  0  0  0  0  0  0  0  0999 V2000
  -36.5970    1.6810  -46.0236 N   0  0  0  0  0  0  0  0  0  0  0  0
  -36.1582    1.8906  -44.4407 S   0  0  0  0  0  0  0  0  0  0  0  0
  -37.2815    1.5080  -43.6589 O   0  0  0  0  0  0  0  0  0  0  0  0
  -34.8743    1.2985  -44.2984 O   0  0  0  0  0  0  0  0  0  0  0  0
  -35.9528    3.5162  -44.2000 N   0  0  0  0  0  0  0  0  0  0  0  0
  -37.0775    4.3569  -43.7677 C   0  0  0  0  0  0  0  0  0  0  0  0
  -36.6621    5.1282  -42.5111 C   0  0  0  0  0  0  0  0  0  0  0  0
  -35.3722    5.9013  -42.7950 C   0  0  0  0  0  0  0  0  0  0  0  0
  -34.2541    4.9185  -43.1502 C   0  0  0  0  0  0  0  0  0  0  0  0
  -34.6409    4.1438  -44.4087 C   0  0  0  0  0  0  0  0  0  0  0  0
  -34.9886    6.6682  -41.6023 N   0  0  0  0  0  0  0  0  0  0  0  0
  -34.6192    5.6272  -40.2969 X   0  0  0  0  0  0  0  0  0  0  0  0
  1  2  1  0  0  0  0
  2  3  2  0  0  0  0
  2  4  2  0  0  0  0
  2  5  1  0  0  0  0
  5  6  1  0  0  0  0
  5 10  1  0  0  0  0
  6  7  1  0  0  0  0
  7  8  1  0  0  0  0
  8  9  1  0  0  0  0
  8 11  1  0  0  0  0
  9 10  1  0  0  0  0
 11 12  1  0  0  0  0
M  END
> <Index>
19477

> <PropertyFieldDistance>
nan

$$$$
12910004
BBcorina  12272117083D 1   1.00000     0.00000 
CORINA 4.3.0 0026  30.10.2019
 11 11  0  0  0  0  0  0  0  0999 V2000
  -36.5174    4.9855  -46.8401 N   0  0  0  0  0  0  0  0  0  0  0  0
  -36.4406    3.5281  -46.0576 S   0  0  0  0  0  0  0  0  0  0  0  0
  -35.3613    2.8141  -46.6442 O   0  0  0  0  0  0  0  0  0  0  0  0
  -37.7696    3.0273  -46.0107 O   0  0  0  0  0  0  0  0  0  0  0  0
  -36.0012    3.8356  -44.4908 N   0  0  0  0  0  0  0  0  0  0  0  0
  -37.0173    4.0834  -43.4566 C   0  0  0  0  0  0  0  0  0  0  0  0
  -36.6572    5.3787  -42.7211 C   0  0  0  0  0  0  0  0  0  0  0  0
  -35.2768    5.2900  -42.2269 N   0  0  0  0  0  0  0  0  0  0  0  0
  -34.3204    5.1713  -43.3357 C   0  0  0  0  0  0  0  0  0  0  0  0
  -34.5847    3.8675  -44.0964 C   0  0  0  0  0  0  0  0  0  0  0  0
  -34.8959    6.6256  -41.2295 X   0  0  0  0  0  0  0  0  0  0  0  0
  1  2  1  0  0  0  0
  2  3  2  0  0  0  0
  2  4  2  0  0  0  0
  2  5  1  0  0  0  0
  5  6  1  0  0  0  0
  5 10  1  0  0  0  0
  6  7  1  0  0  0  0
  7  8  1  0  0  0  0
  8  9  1  0  0  0  0
  8 11  1  0  0  0  0
  9 10  1  0  0  0  0
M  END
> <Index>
19478

> <PropertyFieldDistance>
nan

$$$$
17638406
BBcorina  12272117083D 1   1.00000     0.00000 
CORINA 4.3.0 0026  30.10.2019
  8  8  0  0  0  0  0  0  0  0999 V2000
  -35.0000    0.8860  -43.7332 N   0  0  0  0  0  0  0  0  0  0  0  0
  -35.0199    2.3549  -43.7251 C   0  0  0  0  0  0  0  0  0  0  0  0
  -35.7702    2.8672  -44.9611 C   0  0  0  0  0  0  0  0  0  0  0  0
  -35.6220    4.3890  -45.0209 C   0  0  0  0  0  0  0  0  0  0  0  0
  -35.9592    4.9940  -43.6896 C   0  0  0  0  0  0  0  0  0  0  0  0
  -36.0104    4.3265  -42.5818 C   0  0  0  0  0  0  0  0  0  0  0  0
  -35.7447    2.8526  -42.4726 C   0  0  0  0  0  0  0  0  0  0  0  0
  -33.6017    0.2878  -42.9515 X   0  0  0  0  0  0  0  0  0  0  0  0
  1  2  1  0  0  0  0
  1  8  1  0  0  0  0
  2  3  1  0  0  0  0
  2  7  1  0  0  0  0
  3  4  1  0  0  0  0
  4  5  1  0  0  0  0
  5  6  2  0  0  0  0
  6  7  1  0  0  0  0
M  END
> <Index>
19486

> <PropertyFieldDistance>
nan

$$$$
15065884
BBcorina  12272117083D 1   1.00000     0.00000 
CORINA 4.3.0 0026  30.10.2019
 11 11  0  0  0  0  0  0  0  0999 V2000
  -36.1667    0.6508  -46.5095 F   0  0  0  0  0  0  0  0  0  0  0  0
  -35.7986    1.9261  -46.0674 C   0  0  0  0  0  0  0  0  0  0  0  0
  -36.5188    2.2380  -44.7539 C   0  0  0  0  0  0  0  0  0  0  0  0
  -36.1324    3.5770  -44.2897 N   0  0  0  0  0  0  0  0  0  0  0  0
  -36.9749    4.0081  -43.1668 C   0  0  0  0  0  0  0  0  0  0  0  0
  -36.6429    5.4576  -42.8054 C   0  0  0  0  0  0  0  0  0  0  0  0
  -35.1630    5.5577  -42.4252 C   0  0  0  0  0  0  0  0  0  0  0  0
  -34.3091    5.0575  -43.5937 C   0  0  0  0  0  0  0  0  0  0  0  0
  -34.7087    3.6195  -43.9322 C   0  0  0  0  0  0  0  0  0  0  0  0
  -34.8246    6.9572  -42.1338 N   0  0  0  0  0  0  0  0  0  0  0  0
  -35.2109    7.9695  -43.4567 X   0  0  0  0  0  0  0  0  0  0  0  0
  1  2  1  0  0  0  0
  2  3  1  0  0  0  0
  3  4  1  0  0  0  0
  4  5  1  0  0  0  0
  4  9  1  0  0  0  0
  5  6  1  0  0  0  0
  6  7  1  0  0  0  0
  7  8  1  0  0  0  0
  7 10  1  0  0  0  0
  8  9  1  0  0  0  0
 10 11  1  0  0  0  0
M  END
> <Index>
19487

> <PropertyFieldDistance>
nan

$$$$
12107952
BBcorina  12272117083D 1   1.00000     0.00000 
CORINA 4.3.0 0026  30.10.2019
 11 12  0  0  0  0  0  0  0  0999 V2000
  -35.9479    3.4664  -44.1723 N   0  0  0  0  0  0  0  0  0  0  0  0
  -37.0290    4.3869  -43.7977 C   0  0  0  0  0  0  0  0  0  0  0  0
  -36.6587    5.1099  -42.5007 C   0  0  0  0  0  0  0  0  0  0  0  0
  -35.3534    5.8832  -42.7080 C   0  0  0  0  0  0  0  0  0  0  0  0
  -34.2559    4.9088  -43.1443 C   0  0  0  0  0  0  0  0  0  0  0  0
  -34.6958    4.1916  -44.4226 C   0  0  0  0  0  0  0  0  0  0  0  0
  -32.9629    5.6820  -43.4116 C   0  0  0  0  0  0  0  0  0  0  0  0
  -32.4370    6.4455  -42.1846 C   0  0  0  0  0  0  0  0  0  0  0  0
  -31.0268    6.0091  -42.6158 C   0  0  0  0  0  0  0  0  0  0  0  0
  -31.6962    4.8153  -43.3172 C   0  0  0  0  0  0  0  0  0  0  0  0
  -36.3899    2.5210  -45.5270 X   0  0  0  0  0  0  0  0  0  0  0  0
  1  2  1  0  0  0  0
  1  6  1  0  0  0  0
  1 11  1  0  0  0  0
  2  3  1  0  0  0  0
  3  4  1  0  0  0  0
  4  5  1  0  0  0  0
  5  6  1  0  0  0  0
  5  7  1  0  0  0  0
  7  8  1  0  0  0  0
  7 10  1  0  0  0  0
  8  9  1  0  0  0  0
  9 10  1  0  0  0  0
M  END
> <Index>
19492

> <PropertyFieldDistance>
nan

$$$$
9576336
BBcorina  12272117083D 1   1.00000     0.00000 
CORINA 4.3.0 0026  30.10.2019
 13 14  0  0  0  0  0  0  0  0999 V2000
  -36.0191    3.9414  -44.5845 N   0  0  0  0  0  0  0  0  0  0  0  0
  -36.9724    4.0086  -43.4694 C   0  0  0  0  0  0  0  0  0  0  0  0
  -36.6793    5.2476  -42.6202 C   0  0  0  0  0  0  0  0  0  0  0  0
  -35.2464    5.1681  -42.0862 C   0  0  0  0  0  0  0  0  0  0  0  0
  -34.2770    5.0495  -43.2665 C   0  0  0  0  0  0  0  0  0  0  0  0
  -34.6396    3.8164  -44.0970 C   0  0  0  0  0  0  0  0  0  0  0  0
  -34.9329    6.4139  -41.2983 C   0  0  0  0  0  0  0  0  0  0  0  0
  -35.5064    7.5779  -41.4571 N   0  0  0  0  0  0  0  0  0  0  0  0
  -34.9909    8.4654  -40.5885 C   0  0  0  0  0  0  0  0  0  0  0  0
  -35.3163    9.6336  -40.4835 O   0  0  0  0  0  0  0  0  0  0  0  0
  -34.0458    7.8376  -39.8571 N   0  0  0  0  0  0  0  0  0  0  0  0
  -34.0088    6.5107  -40.3167 N   0  0  0  0  0  0  0  0  0  0  0  0
  -36.4110    2.6621  -45.6494 X   0  0  0  0  0  0  0  0  0  0  0  0
  1  2  1  0  0  0  0
  1  6  1  0  0  0  0
  1 13  1  0  0  0  0
  2  3  1  0  0  0  0
  3  4  1  0  0  0  0
  4  5  1  0  0  0  0
  4  7  1  0  0  0  0
  5  6  1  0  0  0  0
  7  8  2  0  0  0  0
  7 12  1  0  0  0  0
  8  9  1  0  0  0  0
  9 10  2  0  0  0  0
  9 11  1  0  0  0  0
 11 12  1  0  0  0  0
M  END
> <Index>
19500

> <PropertyFieldDistance>
nan

$$$$
14033864
BBcorina  12272117083D 1   1.00000     0.00000 
CORINA 4.3.0 0026  30.10.2019
 11 11  0  0  0  0  0  0  0  0999 V2000
  -35.6704    1.6130  -45.7208 C   0  0  0  0  0  0  0  0  0  0  0  0
  -36.6692    2.3325  -44.8123 C   0  0  0  0  0  0  0  0  0  0  0  0
  -36.7714    1.5906  -43.4781 C   0  0  0  0  0  0  0  0  0  0  0  0
  -38.0425    2.3614  -45.4862 C   0  0  0  0  0  0  0  0  0  0  0  0
  -37.9445    3.0737  -46.7672 N   0  0  0  0  0  0  0  0  0  0  0  0
  -36.2118    3.7080  -44.5740 N   0  0  0  0  0  0  0  0  0  0  0  0
  -37.1108    4.4094  -43.6393 C   0  0  0  0  0  0  0  0  0  0  0  0
  -36.2491    4.8987  -42.4563 C   0  0  0  0  0  0  0  0  0  0  0  0
  -34.8205    4.9434  -43.0596 C   0  0  0  0  0  0  0  0  0  0  0  0
  -34.8445    3.7216  -44.0116 C   0  0  0  0  0  0  0  0  0  0  0  0
  -39.4611    3.1292  -47.5551 X   0  0  0  0  0  0  0  0  0  0  0  0
  1  2  1  0  0  0  0
  2  3  1  0  0  0  0
  2  4  1  0  0  0  0
  2  6  1  0  0  0  0
  4  5  1  0  0  0  0
  5 11  1  0  0  0  0
  6  7  1  0  0  0  0
  6 10  1  0  0  0  0
  7  8  1  0  0  0  0
  8  9  1  0  0  0  0
  9 10  1  0  0  0  0
M  END
> <Index>
19502

> <PropertyFieldDistance>
nan

$$$$
9785666
BBcorina  12272117083D 1   1.00000     0.00000 
CORINA 4.3.0 0026  30.10.2019
  8  8  0  0  0  0  0  0  0  0999 V2000
  -32.5284    5.5204  -42.9687 Br  0  0  0  0  0  0  0  0  0  0  0  0
  -34.3257    4.9839  -43.2086 C   0  0  0  0  0  0  0  0  0  0  0  0
  -35.2102    5.4062  -42.3588 C   0  0  0  0  0  0  0  0  0  0  0  0
  -36.6643    5.0354  -42.4446 C   0  0  0  0  0  0  0  0  0  0  0  0
  -36.9753    4.4840  -43.8384 C   0  0  0  0  0  0  0  0  0  0  0  0
  -35.9665    3.4649  -44.1729 N   0  0  0  0  0  0  0  0  0  0  0  0
  -34.6556    4.0954  -44.3732 C   0  0  0  0  0  0  0  0  0  0  0  0
  -36.4336    2.5702  -45.5532 X   0  0  0  0  0  0  0  0  0  0  0  0
  1  2  1  0  0  0  0
  2  3  2  0  0  0  0
  2  7  1  0  0  0  0
  3  4  1  0  0  0  0
  4  5  1  0  0  0  0
  5  6  1  0  0  0  0
  6  7  1  0  0  0  0
  6  8  1  0  0  0  0
M  END
> <Index>
19506

> <PropertyFieldDistance>
nan

$$$$
9583504
BBcorina  12272117083D 1   1.00000     0.00000 
CORINA 4.3.0 0026  30.10.2019
 11 11  0  0  0  0  0  0  0  0999 V2000
  -34.5436    8.6429  -42.9135 C   0  0  0  0  0  0  0  0  0  0  0  0
  -33.9631    7.3371  -42.9131 O   0  0  0  0  0  0  0  0  0  0  0  0
  -34.8648    6.3001  -43.3050 C   0  0  0  0  0  0  0  0  0  0  0  0
  -35.3523    6.5812  -44.7277 C   0  0  0  0  0  0  0  0  0  0  0  0
  -36.0770    6.3076  -42.3523 C   0  0  0  0  0  0  0  0  0  0  0  0
  -36.8661    4.9886  -42.4148 C   0  0  0  0  0  0  0  0  0  0  0  0
  -36.9974    4.4862  -43.8308 C   0  0  0  0  0  0  0  0  0  0  0  0
  -35.9109    3.5169  -44.0745 N   0  0  0  0  0  0  0  0  0  0  0  0
  -34.6839    4.0883  -44.4235 C   0  0  0  0  0  0  0  0  0  0  0  0
  -34.1291    4.9837  -43.2942 C   0  0  0  0  0  0  0  0  0  0  0  0
  -36.3860    2.3389  -45.2193 X   0  0  0  0  0  0  0  0  0  0  0  0
  1  2  1  0  0  0  0
  2  3  1  0  0  0  0
  3  4  1  0  0  0  0
  3  5  1  0  0  0  0
  3 10  1  0  0  0  0
  5  6  1  0  0  0  0
  6  7  1  0  0  0  0
  7  8  1  0  0  0  0
  8  9  1  0  0  0  0
  8 11  1  0  0  0  0
  9 10  1  0  0  0  0
M  END
> <Index>
19512

> <PropertyFieldDistance>
nan

$$$$
9576344
BBcorina  12272117083D 1   1.00000     0.00000 
CORINA 4.3.0 0026  30.10.2019
 13 14  0  0  0  0  0  0  0  0999 V2000
  -35.9480    3.4664  -44.1723 N   0  0  0  0  0  0  0  0  0  0  0  0
  -37.0290    4.3869  -43.7977 C   0  0  0  0  0  0  0  0  0  0  0  0
  -36.6587    5.1099  -42.5007 C   0  0  0  0  0  0  0  0  0  0  0  0
  -35.3532    5.8831  -42.7070 C   0  0  0  0  0  0  0  0  0  0  0  0
  -34.2558    4.9088  -43.1443 C   0  0  0  0  0  0  0  0  0  0  0  0
  -34.6958    4.1917  -44.4226 C   0  0  0  0  0  0  0  0  0  0  0  0
  -34.9633    6.5293  -41.4514 N   0  0  0  0  0  0  0  0  0  0  0  0
  -34.6964    5.8884  -40.2661 C   0  0  0  0  0  0  0  0  0  0  0  0
  -34.3846    6.7725  -39.3742 N   0  0  0  0  0  0  0  0  0  0  0  0
  -34.4434    8.0377  -39.9747 N   0  0  0  0  0  0  0  0  0  0  0  0
  -34.7995    7.8542  -41.2633 C   0  0  0  0  0  0  0  0  0  0  0  0
  -34.9484    8.7255  -42.1015 O   0  0  0  0  0  0  0  0  0  0  0  0
  -36.3899    2.5211  -45.5270 X   0  0  0  0  0  0  0  0  0  0  0  0
  1  2  1  0  0  0  0
  1  6  1  0  0  0  0
  1 13  1  0  0  0  0
  2  3  1  0  0  0  0
  3  4  1  0  0  0  0
  4  5  1  0  0  0  0
  4  7  1  0  0  0  0
  5  6  1  0  0  0  0
  7  8  1  0  0  0  0
  7 11  1  0  0  0  0
  8  9  2  0  0  0  0
  9 10  1  0  0  0  0
 10 11  1  0  0  0  0
 11 12  2  0  0  0  0
M  END
> <Index>
19517

> <PropertyFieldDistance>
nan

$$$$
13762220
BBcorina  12272117083D 1   1.00000     0.00000 
CORINA 4.3.0 0026  30.10.2019
  8  8  0  0  0  0  0  0  0  0999 V2000
  -35.0429    6.9623  -41.2082 Br  0  0  0  0  0  0  0  0  0  0  0  0
  -35.4047    5.6117  -42.4814 C   0  0  0  0  0  0  0  0  0  0  0  0
  -36.6176    5.1543  -42.5743 C   0  0  0  0  0  0  0  0  0  0  0  0
  -37.0214    4.0824  -43.5450 C   0  0  0  0  0  0  0  0  0  0  0  0
  -36.0030    3.9348  -44.5927 N   0  0  0  0  0  0  0  0  0  0  0  0
  -34.6695    3.7815  -43.9877 C   0  0  0  0  0  0  0  0  0  0  0  0
  -34.2758    5.1106  -43.3380 C   0  0  0  0  0  0  0  0  0  0  0  0
  -36.0376    5.2605  -45.6721 X   0  0  0  0  0  0  0  0  0  0  0  0
  1  2  1  0  0  0  0
  2  3  2  0  0  0  0
  2  7  1  0  0  0  0
  3  4  1  0  0  0  0
  4  5  1  0  0  0  0
  5  6  1  0  0  0  0
  5  8  1  0  0  0  0
  6  7  1  0  0  0  0
M  END
> <Index>
19523

> <PropertyFieldDistance>
nan

$$$$
14033988
BBcorina  12272117083D 1   1.00000     0.00000 
CORINA 4.3.0 0026  30.10.2019
 13 14  0  0  0  0  0  0  0  0999 V2000
  -36.0190    3.9415  -44.5844 N   0  0  0  0  0  0  0  0  0  0  0  0
  -36.9724    4.0086  -43.4695 C   0  0  0  0  0  0  0  0  0  0  0  0
  -36.6793    5.2476  -42.6202 C   0  0  0  0  0  0  0  0  0  0  0  0
  -35.2462    5.1675  -42.0869 C   0  0  0  0  0  0  0  0  0  0  0  0
  -34.2770    5.0495  -43.2665 C   0  0  0  0  0  0  0  0  0  0  0  0
  -34.6396    3.8164  -44.0971 C   0  0  0  0  0  0  0  0  0  0  0  0
  -34.9317    6.4132  -41.2994 C   0  0  0  0  0  0  0  0  0  0  0  0
  -34.5857    6.3423  -39.9563 C   0  0  0  0  0  0  0  0  0  0  0  0
  -34.3036    7.5270  -39.2942 C   0  0  0  0  0  0  0  0  0  0  0  0
  -34.3795    8.6745  -39.9406 N   0  0  0  0  0  0  0  0  0  0  0  0
  -34.7045    8.7405  -41.1805 N   0  0  0  0  0  0  0  0  0  0  0  0
  -34.9844    7.6652  -41.8918 C   0  0  0  0  0  0  0  0  0  0  0  0
  -36.4107    2.6622  -45.6494 X   0  0  0  0  0  0  0  0  0  0  0  0
  1  2  1  0  0  0  0
  1  6  1  0  0  0  0
  1 13  1  0  0  0  0
  2  3  1  0  0  0  0
  3  4  1  0  0  0  0
  4  5  1  0  0  0  0
  4  7  1  0  0  0  0
  5  6  1  0  0  0  0
  7  8  2  0  0  0  0
  7 12  1  0  0  0  0
  8  9  1  0  0  0  0
  9 10  2  0  0  0  0
 10 11  1  0  0  0  0
 11 12  2  0  0  0  0
M  END
> <Index>
19529

> <PropertyFieldDistance>
nan

$$$$
14033994
BBcorina  12272117083D 1   1.00000     0.00000 
CORINA 4.3.0 0026  30.10.2019
 13 14  0  0  0  0  0  0  0  0999 V2000
  -35.2517    5.7273  -42.7086 N   0  0  0  0  0  0  0  0  0  0  0  0
  -36.5103    5.0791  -42.3144 C   0  0  0  0  0  0  0  0  0  0  0  0
  -37.0927    4.3292  -43.5148 C   0  0  0  0  0  0  0  0  0  0  0  0
  -36.1183    3.3364  -43.9885 N   0  0  0  0  0  0  0  0  0  0  0  0
  -36.6706    2.5427  -45.0944 C   0  0  0  0  0  0  0  0  0  0  0  0
  -35.5753    1.7129  -45.7132 C   0  0  0  0  0  0  0  0  0  0  0  0
  -35.2786    0.4386  -45.4095 C   0  0  0  0  0  0  0  0  0  0  0  0
  -34.2418    0.0759  -46.1902 O   0  0  0  0  0  0  0  0  0  0  0  0
  -33.9142    1.1297  -46.9497 C   0  0  0  0  0  0  0  0  0  0  0  0
  -34.7152    2.1167  -46.6648 N   0  0  0  0  0  0  0  0  0  0  0  0
  -34.8596    3.9845  -44.3827 C   0  0  0  0  0  0  0  0  0  0  0  0
  -34.2773    4.7344  -43.1823 C   0  0  0  0  0  0  0  0  0  0  0  0
  -34.6088    6.6511  -41.4213 X   0  0  0  0  0  0  0  0  0  0  0  0
  1  2  1  0  0  0  0
  1 12  1  0  0  0  0
  1 13  1  0  0  0  0
  2  3  1  0  0  0  0
  3  4  1  0  0  0  0
  4  5  1  0  0  0  0
  4 11  1  0  0  0  0
  5  6  1  0  0  0  0
  6  7  2  0  0  0  0
  6 10  1  0  0  0  0
  7  8  1  0  0  0  0
  8  9  1  0  0  0  0
  9 10  2  0  0  0  0
 11 12  1  0  0  0  0
M  END
> <Index>
19535

> <PropertyFieldDistance>
nan

$$$$
9276804
BBcorina  12272117083D 1   1.00000     0.00000 
CORINA 4.3.0 0026  30.10.2019
 14 15  0  0  0  0  0  0  0  0999 V2000
  -36.9411    3.2258  -47.2308 C   0  0  0  0  0  0  0  0  0  0  0  0
  -36.7382    2.2054  -46.1994 N   0  0  0  0  0  0  0  0  0  0  0  0
  -36.9206    0.8485  -46.3430 C   0  0  0  0  0  0  0  0  0  0  0  0
  -36.6246    0.2860  -45.1590 C   0  0  0  0  0  0  0  0  0  0  0  0
  -36.2693    1.2611  -44.3052 N   0  0  0  0  0  0  0  0  0  0  0  0
  -36.3334    2.4192  -44.9184 C   0  0  0  0  0  0  0  0  0  0  0  0
  -36.0399    3.6506  -44.3565 N   0  0  0  0  0  0  0  0  0  0  0  0
  -36.9543    3.9550  -43.2487 C   0  0  0  0  0  0  0  0  0  0  0  0
  -36.6963    5.3782  -42.7489 C   0  0  0  0  0  0  0  0  0  0  0  0
  -35.2427    5.4942  -42.2819 C   0  0  0  0  0  0  0  0  0  0  0  0
  -34.3118    5.1253  -43.4404 C   0  0  0  0  0  0  0  0  0  0  0  0
  -34.6390    3.7094  -43.9202 C   0  0  0  0  0  0  0  0  0  0  0  0
  -34.9726    6.8738  -41.8554 N   0  0  0  0  0  0  0  0  0  0  0  0
  -33.7814    6.9142  -40.6294 X   0  0  0  0  0  0  0  0  0  0  0  0
  1  2  1  0  0  0  0
  2  3  1  0  0  0  0
  2  6  1  0  0  0  0
  3  4  2  0  0  0  0
  4  5  1  0  0  0  0
  5  6  2  0  0  0  0
  6  7  1  0  0  0  0
  7  8  1  0  0  0  0
  7 12  1  0  0  0  0
  8  9  1  0  0  0  0
  9 10  1  0  0  0  0
 10 11  1  0  0  0  0
 10 13  1  0  0  0  0
 11 12  1  0  0  0  0
 13 14  1  0  0  0  0
M  END
> <Index>
19549

> <PropertyFieldDistance>
nan

$$$$
9405914
BBcorina  12272117083D 1   1.00000     0.00000 
CORINA 4.3.0 0026  30.10.2019
 12 13  0  0  0  0  0  0  0  0999 V2000
  -35.9728    7.9874  -41.6459 N   0  0  0  0  0  0  0  0  0  0  0  0
  -34.9564    6.9433  -41.8326 C   0  0  0  0  0  0  0  0  0  0  0  0
  -35.3835    6.0134  -42.9700 C   0  0  0  0  0  0  0  0  0  0  0  0
  -36.6552    5.2624  -42.5668 C   0  0  0  0  0  0  0  0  0  0  0  0
  -37.0433    4.2897  -43.6828 C   0  0  0  0  0  0  0  0  0  0  0  0
  -35.9454    3.3417  -43.9110 N   0  0  0  0  0  0  0  0  0  0  0  0
  -34.7262    4.0356  -44.3451 C   0  0  0  0  0  0  0  0  0  0  0  0
  -34.2692    5.0008  -43.2488 C   0  0  0  0  0  0  0  0  0  0  0  0
  -36.3354    2.3075  -44.8786 C   0  0  0  0  0  0  0  0  0  0  0  0
  -35.2977    1.2385  -45.2268 C   0  0  0  0  0  0  0  0  0  0  0  0
  -36.5038    0.8792  -44.3568 C   0  0  0  0  0  0  0  0  0  0  0  0
  -35.5336    9.0509  -40.3810 X   0  0  0  0  0  0  0  0  0  0  0  0
  1  2  1  0  0  0  0
  1 12  1  0  0  0  0
  2  3  1  0  0  0  0
  3  4  1  0  0  0  0
  3  8  1  0  0  0  0
  4  5  1  0  0  0  0
  5  6  1  0  0  0  0
  6  7  1  0  0  0  0
  6  9  1  0  0  0  0
  7  8  1  0  0  0  0
  9 10  1  0  0  0  0
  9 11  1  0  0  0  0
 10 11  1  0  0  0  0
M  END
> <Index>
19550

> <PropertyFieldDistance>
nan

$$$$
14186810
BBcorina  12272117083D 1   1.00000     0.00000 
CORINA 4.3.0 0026  30.10.2019
  7  7  0  0  0  0  0  0  0  0999 V2000
  -36.0032    3.7116  -44.2370 N   0  0  0  0  0  0  0  0  0  0  0  0
  -37.1758    4.5246  -43.8641 C   0  0  0  0  0  0  0  0  0  0  0  0
  -36.4847    4.8057  -42.5225 C   0  0  0  0  0  0  0  0  0  0  0  0
  -35.2020    4.5506  -43.3264 C   0  0  0  0  0  0  0  0  0  0  0  0
  -34.6601    5.7598  -43.9676 C   0  0  0  0  0  0  0  0  0  0  0  0
  -34.2279    6.7242  -44.4790 C   0  0  0  0  0  0  0  0  0  0  0  0
  -35.5628    3.9828  -45.8669 X   0  0  0  0  0  0  0  0  0  0  0  0
  1  2  1  0  0  0  0
  1  4  1  0  0  0  0
  1  7  1  0  0  0  0
  2  3  1  0  0  0  0
  3  4  1  0  0  0  0
  4  5  1  0  0  0  0
  5  6  3  0  0  0  0
M  END
> <Index>
19562

> <PropertyFieldDistance>
nan

$$$$
13849110
BBcorina  12272117083D 1   1.00000     0.00000 
CORINA 4.3.0 0026  30.10.2019
 13 14  0  0  0  0  0  0  0  0999 V2000
  -37.1309    1.9462  -45.5268 C   0  0  0  0  0  0  0  0  0  0  0  0
  -35.7090    2.2707  -45.0644 C   0  0  0  0  0  0  0  0  0  0  0  0
  -35.6823    3.6131  -44.4684 N   0  0  0  0  0  0  0  0  0  0  0  0
  -36.8047    3.7984  -43.5361 C   0  0  0  0  0  0  0  0  0  0  0  0
  -36.7709    5.2242  -42.9808 C   0  0  0  0  0  0  0  0  0  0  0  0
  -35.4913    5.4529  -42.2954 N   0  0  0  0  0  0  0  0  0  0  0  0
  -34.3632    5.2744  -43.2219 C   0  0  0  0  0  0  0  0  0  0  0  0
  -34.4035    3.8667  -43.8049 C   0  0  0  0  0  0  0  0  0  0  0  0
  -34.1601    2.8244  -42.6976 C   0  0  0  0  0  0  0  0  0  0  0  0
  -32.8690    2.1018  -43.1457 C   0  0  0  0  0  0  0  0  0  0  0  0
  -32.1944    3.0484  -44.0036 O   0  0  0  0  0  0  0  0  0  0  0  0
  -33.2389    3.6637  -44.7910 C   0  0  0  0  0  0  0  0  0  0  0  0
  -35.4516    7.0023  -41.5729 X   0  0  0  0  0  0  0  0  0  0  0  0
  1  2  1  0  0  0  0
  2  3  1  0  0  0  0
  3  4  1  0  0  0  0
  3  8  1  0  0  0  0
  4  5  1  0  0  0  0
  5  6  1  0  0  0  0
  6  7  1  0  0  0  0
  6 13  1  0  0  0  0
  7  8  1  0  0  0  0
  8  9  1  0  0  0  0
  8 12  1  0  0  0  0
  9 10  1  0  0  0  0
 10 11  1  0  0  0  0
 11 12  1  0  0  0  0
M  END
> <Index>
19583

> <PropertyFieldDistance>
nan

$$$$
9210058
BBcorina  12272117083D 1   1.00000     0.00000 
CORINA 4.3.0 0026  30.10.2019
  8  8  0  0  0  0  0  0  0  0999 V2000
  -36.0250    3.6271  -44.4345 N   0  0  0  0  0  0  0  0  0  0  0  0
  -37.0351    4.4888  -43.7818 C   0  0  0  0  0  0  0  0  0  0  0  0
  -36.6036    4.9258  -42.4072 C   0  0  0  0  0  0  0  0  0  0  0  0
  -35.8470    6.2605  -42.5160 C   0  0  0  0  0  0  0  0  0  0  0  0
  -34.4608    6.0853  -42.9557 C   0  0  0  0  0  0  0  0  0  0  0  0
  -34.3853    5.4483  -44.3598 C   0  0  0  0  0  0  0  0  0  0  0  0
  -34.6320    4.0710  -44.2476 O   0  0  0  0  0  0  0  0  0  0  0  0
  -36.3825    3.4121  -46.0928 X   0  0  0  0  0  0  0  0  0  0  0  0
  1  2  1  0  0  0  0
  1  7  1  0  0  0  0
  1  8  1  0  0  0  0
  2  3  1  0  0  0  0
  3  4  1  0  0  0  0
  4  5  1  0  0  0  0
  5  6  1  0  0  0  0
  6  7  1  0  0  0  0
M  END
> <Index>
19588

> <PropertyFieldDistance>
nan

$$$$
12890606
BBcorina  12272117083D 1   1.00000     0.00000 
CORINA 4.3.0 0026  30.10.2019
 13 14  0  0  0  0  0  0  0  0999 V2000
  -33.0401    5.6542  -43.5221 N   0  0  0  0  0  0  0  0  0  0  0  0
  -34.2612    4.9313  -43.1425 C   0  0  0  0  0  0  0  0  0  0  0  0
  -35.3558    5.9396  -42.7901 C   0  0  0  0  0  0  0  0  0  0  0  0
  -36.6780    5.2290  -42.6828 C   0  0  0  0  0  0  0  0  0  0  0  0
  -37.6342    5.6452  -41.7825 C   0  0  0  0  0  0  0  0  0  0  0  0
  -38.7949    5.0293  -41.7044 N   0  0  0  0  0  0  0  0  0  0  0  0
  -39.0870    3.9893  -42.4622 C   0  0  0  0  0  0  0  0  0  0  0  0
  -38.1799    3.5076  -43.3857 C   0  0  0  0  0  0  0  0  0  0  0  0
  -36.9466    4.1401  -43.5045 C   0  0  0  0  0  0  0  0  0  0  0  0
  -35.9951    3.6969  -44.4175 N   0  0  0  0  0  0  0  0  0  0  0  0
  -34.7064    4.0662  -44.2903 C   0  0  0  0  0  0  0  0  0  0  0  0
  -33.8941    3.6971  -45.1117 O   0  0  0  0  0  0  0  0  0  0  0  0
  -33.3422    6.7302  -44.8163 X   0  0  0  0  0  0  0  0  0  0  0  0
  1  2  1  0  0  0  0
  1 13  1  0  0  0  0
  2  3  1  0  0  0  0
  2 11  1  0  0  0  0
  3  4  1  0  0  0  0
  4  5  2  0  0  0  0
  4  9  1  0  0  0  0
  5  6  1  0  0  0  0
  6  7  2  0  0  0  0
  7  8  1  0  0  0  0
  8  9  2  0  0  0  0
  9 10  1  0  0  0  0
 10 11  1  0  0  0  0
 11 12  2  0  0  0  0
M  END
> <Index>
19591

> <PropertyFieldDistance>
nan

$$$$
12890608
BBcorina  12272117083D 1   1.00000     0.00000 
CORINA 4.3.0 0026  30.10.2019
 13 14  0  0  0  0  0  0  0  0999 V2000
  -33.0348    5.6488  -43.5211 N   0  0  0  0  0  0  0  0  0  0  0  0
  -34.2591    4.9308  -43.1419 C   0  0  0  0  0  0  0  0  0  0  0  0
  -35.3544    5.9408  -42.7968 C   0  0  0  0  0  0  0  0  0  0  0  0
  -36.6766    5.2297  -42.6876 C   0  0  0  0  0  0  0  0  0  0  0  0
  -37.6271    5.6570  -41.7805 C   0  0  0  0  0  0  0  0  0  0  0  0
  -38.8330    4.9706  -41.7154 C   0  0  0  0  0  0  0  0  0  0  0  0
  -39.0406    3.8923  -42.5525 C   0  0  0  0  0  0  0  0  0  0  0  0
  -38.1129    3.5081  -43.4078 N   0  0  0  0  0  0  0  0  0  0  0  0
  -36.9502    4.1361  -43.5012 C   0  0  0  0  0  0  0  0  0  0  0  0
  -35.9944    3.7013  -44.4181 N   0  0  0  0  0  0  0  0  0  0  0  0
  -34.7070    4.0657  -44.2889 C   0  0  0  0  0  0  0  0  0  0  0  0
  -33.8948    3.6898  -45.1074 O   0  0  0  0  0  0  0  0  0  0  0  0
  -33.3327    6.7276  -44.8140 X   0  0  0  0  0  0  0  0  0  0  0  0
  1  2  1  0  0  0  0
  1 13  1  0  0  0  0
  2  3  1  0  0  0  0
  2 11  1  0  0  0  0
  3  4  1  0  0  0  0
  4  5  2  0  0  0  0
  4  9  1  0  0  0  0
  5  6  1  0  0  0  0
  6  7  2  0  0  0  0
  7  8  1  0  0  0  0
  8  9  2  0  0  0  0
  9 10  1  0  0  0  0
 10 11  1  0  0  0  0
 11 12  2  0  0  0  0
M  END
> <Index>
19592

> <PropertyFieldDistance>
nan

$$$$
12866402
BBcorina  12272117083D 1   1.00000     0.00000 
CORINA 4.3.0 0026  30.10.2019
  8  9  0  0  0  0  0  0  0  0999 V2000
  -35.9051    3.4448  -44.1629 N   0  0  0  0  0  0  0  0  0  0  0  0
  -37.1437    4.2437  -44.0771 C   0  0  0  0  0  0  0  0  0  0  0  0
  -36.3540    5.2900  -43.2757 C   0  0  0  0  0  0  0  0  0  0  0  0
  -35.1592    4.7002  -44.0232 C   0  0  0  0  0  0  0  0  0  0  0  0
  -33.7581    4.7201  -43.4073 C   0  0  0  0  0  0  0  0  0  0  0  0
  -33.4738    5.9381  -44.3045 C   0  0  0  0  0  0  0  0  0  0  0  0
  -34.5695    5.4069  -45.2461 C   0  0  0  0  0  0  0  0  0  0  0  0
  -35.7080    2.7859  -45.7285 X   0  0  0  0  0  0  0  0  0  0  0  0
  1  2  1  0  0  0  0
  1  4  1  0  0  0  0
  1  8  1  0  0  0  0
  2  3  1  0  0  0  0
  3  4  1  0  0  0  0
  4  5  1  0  0  0  0
  4  7  1  0  0  0  0
  5  6  1  0  0  0  0
  6  7  1  0  0  0  0
M  END
> <Index>
19594

> <PropertyFieldDistance>
nan

$$$$
10684462
BBcorina  12272117083D 1   1.00000     0.00000 
CORINA 4.3.0 0026  30.10.2019
 12 13  0  0  0  0  0  0  0  0999 V2000
  -36.3201    2.2797  -44.8911 C   0  0  0  0  0  0  0  0  0  0  0  0
  -36.0752    3.6562  -44.4400 N   0  0  0  0  0  0  0  0  0  0  0  0
  -37.0873    4.0757  -43.4365 C   0  0  0  0  0  0  0  0  0  0  0  0
  -36.3985    5.2589  -42.7090 C   0  0  0  0  0  0  0  0  0  0  0  0
  -34.9246    4.8115  -42.6479 C   0  0  0  0  0  0  0  0  0  0  0  0
  -34.7641    3.7667  -43.7619 C   0  0  0  0  0  0  0  0  0  0  0  0
  -34.6254    4.1854  -41.2889 C   0  0  0  0  0  0  0  0  0  0  0  0
  -33.1461    3.7905  -41.2310 C   0  0  0  0  0  0  0  0  0  0  0  0
  -32.2843    5.0254  -41.5042 C   0  0  0  0  0  0  0  0  0  0  0  0
  -32.6045    5.5666  -42.8311 N   0  0  0  0  0  0  0  0  0  0  0  0
  -34.0061    6.0021  -42.9021 C   0  0  0  0  0  0  0  0  0  0  0  0
  -31.5445    6.8433  -43.2444 X   0  0  0  0  0  0  0  0  0  0  0  0
  1  2  1  0  0  0  0
  2  3  1  0  0  0  0
  2  6  1  0  0  0  0
  3  4  1  0  0  0  0
  4  5  1  0  0  0  0
  5  6  1  0  0  0  0
  5  7  1  0  0  0  0
  5 11  1  0  0  0  0
  7  8  1  0  0  0  0
  8  9  1  0  0  0  0
  9 10  1  0  0  0  0
 10 11  1  0  0  0  0
 10 12  1  0  0  0  0
M  END
> <Index>
19595

> <PropertyFieldDistance>
nan

$$$$
12850406
BBcorina  12272117083D 1   1.00000     0.00000 
CORINA 4.3.0 0026  30.10.2019
 13 14  0  0  0  0  0  0  0  0999 V2000
  -34.9576    8.9325  -42.2030 C   0  0  0  0  0  0  0  0  0  0  0  0
  -34.7839    7.8683  -41.2113 N   0  0  0  0  0  0  0  0  0  0  0  0
  -34.4443    8.0200  -39.9759 N   0  0  0  0  0  0  0  0  0  0  0  0
  -34.3871    6.8622  -39.4159 N   0  0  0  0  0  0  0  0  0  0  0  0
  -34.6931    5.9546  -40.2777 N   0  0  0  0  0  0  0  0  0  0  0  0
  -34.9520    6.5487  -41.4169 C   0  0  0  0  0  0  0  0  0  0  0  0
  -35.3535    5.8832  -42.7080 C   0  0  0  0  0  0  0  0  0  0  0  0
  -36.6586    5.1099  -42.5007 C   0  0  0  0  0  0  0  0  0  0  0  0
  -37.0290    4.3869  -43.7977 C   0  0  0  0  0  0  0  0  0  0  0  0
  -35.9479    3.4664  -44.1723 N   0  0  0  0  0  0  0  0  0  0  0  0
  -34.6958    4.1916  -44.4226 C   0  0  0  0  0  0  0  0  0  0  0  0
  -34.2559    4.9088  -43.1443 C   0  0  0  0  0  0  0  0  0  0  0  0
  -36.3899    2.5209  -45.5269 X   0  0  0  0  0  0  0  0  0  0  0  0
  1  2  1  0  0  0  0
  2  3  1  0  0  0  0
  2  6  1  0  0  0  0
  3  4  2  0  0  0  0
  4  5  1  0  0  0  0
  5  6  2  0  0  0  0
  6  7  1  0  0  0  0
  7  8  1  0  0  0  0
  7 12  1  0  0  0  0
  8  9  1  0  0  0  0
  9 10  1  0  0  0  0
 10 11  1  0  0  0  0
 10 13  1  0  0  0  0
 11 12  1  0  0  0  0
M  END
> <Index>
19596

> <PropertyFieldDistance>
nan

$$$$
15142130
BBcorina  12272117083D 1   1.00000     0.00000 
CORINA 4.3.0 0026  30.10.2019
  9 10  0  0  0  0  0  0  0  0999 V2000
  -33.6692    3.5445  -42.9488 N   0  0  0  0  0  0  0  0  0  0  0  0
  -34.3895    2.9613  -44.0885 C   0  0  0  0  0  0  0  0  0  0  0  0
  -34.5271    3.9173  -45.2872 C   0  0  0  0  0  0  0  0  0  0  0  0
  -35.9666    3.3956  -45.4477 C   0  0  0  0  0  0  0  0  0  0  0  0
  -35.9127    3.0428  -43.9609 C   0  0  0  0  0  0  0  0  0  0  0  0
  -36.5697    3.9397  -42.9111 C   0  0  0  0  0  0  0  0  0  0  0  0
  -36.7719    2.6639  -42.0735 C   0  0  0  0  0  0  0  0  0  0  0  0
  -36.7232    1.8761  -43.3952 C   0  0  0  0  0  0  0  0  0  0  0  0
  -31.9780    3.3892  -43.1483 X   0  0  0  0  0  0  0  0  0  0  0  0
  1  2  1  0  0  0  0
  1  9  1  0  0  0  0
  2  3  1  0  0  0  0
  2  5  1  0  0  0  0
  3  4  1  0  0  0  0
  4  5  1  0  0  0  0
  5  6  1  0  0  0  0
  5  8  1  0  0  0  0
  6  7  1  0  0  0  0
  7  8  1  0  0  0  0
M  END
> <Index>
19599

> <PropertyFieldDistance>
nan

$$$$
9227524
BBcorina  12272117083D 1   1.00000     0.00000 
CORINA 4.3.0 0026  30.10.2019
 11 12  0  0  0  0  0  0  0  0999 V2000
  -34.9355    5.7099  -43.0190 N   0  0  0  0  0  0  0  0  0  0  0  0
  -35.8860    4.9973  -43.8831 C   0  0  0  0  0  0  0  0  0  0  0  0
  -37.2470    4.7326  -43.2162 C   0  0  0  0  0  0  0  0  0  0  0  0
  -37.2151    3.3446  -43.8789 C   0  0  0  0  0  0  0  0  0  0  0  0
  -35.6867    3.4764  -43.8933 C   0  0  0  0  0  0  0  0  0  0  0  0
  -35.0425    2.9539  -45.1756 C   0  0  0  0  0  0  0  0  0  0  0  0
  -35.0599    1.4226  -45.1614 C   0  0  0  0  0  0  0  0  0  0  0  0
  -34.3219    0.9168  -43.9206 C   0  0  0  0  0  0  0  0  0  0  0  0
  -35.0360    1.4092  -42.6606 C   0  0  0  0  0  0  0  0  0  0  0  0
  -35.0172    2.9402  -42.6297 C   0  0  0  0  0  0  0  0  0  0  0  0
  -34.6212    7.2804  -43.6181 X   0  0  0  0  0  0  0  0  0  0  0  0
  1  2  1  0  0  0  0
  1 11  1  0  0  0  0
  2  3  1  0  0  0  0
  2  5  1  0  0  0  0
  3  4  1  0  0  0  0
  4  5  1  0  0  0  0
  5  6  1  0  0  0  0
  5 10  1  0  0  0  0
  6  7  1  0  0  0  0
  7  8  1  0  0  0  0
  8  9  1  0  0  0  0
  9 10  1  0  0  0  0
M  END
> <Index>
19600

> <PropertyFieldDistance>
nan

$$$$
6203068
BBcorina  12272117083D 1   1.00000     0.00000 
CORINA 4.3.0 0026  30.10.2019
 11 11  0  0  0  0  0  0  0  0999 V2000
  -34.7602    5.5882  -40.4089 F   0  0  0  0  0  0  0  0  0  0  0  0
  -34.9467    6.5601  -41.3977 C   0  0  0  0  0  0  0  0  0  0  0  0
  -33.7541    7.2664  -41.5882 F   0  0  0  0  0  0  0  0  0  0  0  0
  -35.9537    7.4450  -40.9976 F   0  0  0  0  0  0  0  0  0  0  0  0
  -35.3535    5.8832  -42.7080 C   0  0  0  0  0  0  0  0  0  0  0  0
  -36.6586    5.1099  -42.5007 C   0  0  0  0  0  0  0  0  0  0  0  0
  -37.0290    4.3869  -43.7977 C   0  0  0  0  0  0  0  0  0  0  0  0
  -35.9479    3.4664  -44.1723 N   0  0  0  0  0  0  0  0  0  0  0  0
  -34.6958    4.1916  -44.4226 C   0  0  0  0  0  0  0  0  0  0  0  0
  -34.2559    4.9088  -43.1443 C   0  0  0  0  0  0  0  0  0  0  0  0
  -36.3899    2.5209  -45.5269 X   0  0  0  0  0  0  0  0  0  0  0  0
  1  2  1  0  0  0  0
  2  3  1  0  0  0  0
  2  4  1  0  0  0  0
  2  5  1  0  0  0  0
  5  6  1  0  0  0  0
  5 10  1  0  0  0  0
  6  7  1  0  0  0  0
  7  8  1  0  0  0  0
  8  9  1  0  0  0  0
  8 11  1  0  0  0  0
  9 10  1  0  0  0  0
M  END
> <Index>
19619

> <PropertyFieldDistance>
nan

$$$$
4601046
BBcorina  12272117083D 1   1.00000     0.00000 
CORINA 4.3.0 0026  30.10.2019
 14 14  0  0  0  0  0  0  0  0999 V2000
  -37.2107   -0.4973  -45.0588 C   0  0  0  0  0  0  0  0  0  0  0  0
  -37.8115    0.6597  -45.8594 C   0  0  0  0  0  0  0  0  0  0  0  0
  -39.3101    0.4209  -46.0547 C   0  0  0  0  0  0  0  0  0  0  0  0
  -37.1265    0.7450  -47.2248 C   0  0  0  0  0  0  0  0  0  0  0  0
  -37.6095    1.9036  -45.1381 O   0  0  0  0  0  0  0  0  0  0  0  0
  -36.3372    2.2625  -44.8828 C   0  0  0  0  0  0  0  0  0  0  0  0
  -35.4208    1.5556  -45.2526 O   0  0  0  0  0  0  0  0  0  0  0  0
  -36.0803    3.4058  -44.2171 N   0  0  0  0  0  0  0  0  0  0  0  0
  -37.0917    4.3529  -43.7137 C   0  0  0  0  0  0  0  0  0  0  0  0
  -36.3913    5.1007  -42.5519 C   0  0  0  0  0  0  0  0  0  0  0  0
  -34.9436    5.2328  -43.0942 C   0  0  0  0  0  0  0  0  0  0  0  0
  -34.7447    3.9153  -43.8729 C   0  0  0  0  0  0  0  0  0  0  0  0
  -33.9815    5.3333  -41.9886 N   0  0  0  0  0  0  0  0  0  0  0  0
  -32.5584    6.1405  -42.4861 X   0  0  0  0  0  0  0  0  0  0  0  0
  1  2  1  0  0  0  0
  2  3  1  0  0  0  0
  2  4  1  0  0  0  0
  2  5  1  0  0  0  0
  5  6  1  0  0  0  0
  6  7  2  0  0  0  0
  6  8  1  0  0  0  0
  8  9  1  0  0  0  0
  8 12  1  0  0  0  0
  9 10  1  0  0  0  0
 10 11  1  0  0  0  0
 11 12  1  0  0  0  0
 11 13  1  0  0  0  0
 13 14  1  0  0  0  0
M  END
> <Index>
19621

> <PropertyFieldDistance>
nan

$$$$
4145116
BBcorina  12272117083D 1   1.00000     0.00000 
CORINA 4.3.0 0026  30.10.2019
 12 13  0  0  0  0  0  0  0  0999 V2000
  -36.0191    3.9415  -44.5845 N   0  0  0  0  0  0  0  0  0  0  0  0
  -36.9723    4.0086  -43.4695 C   0  0  0  0  0  0  0  0  0  0  0  0
  -36.6793    5.2476  -42.6202 C   0  0  0  0  0  0  0  0  0  0  0  0
  -35.2462    5.1676  -42.0870 C   0  0  0  0  0  0  0  0  0  0  0  0
  -34.2770    5.0496  -43.2665 C   0  0  0  0  0  0  0  0  0  0  0  0
  -34.6396    3.8163  -44.0970 C   0  0  0  0  0  0  0  0  0  0  0  0
  -32.9041    4.9144  -42.7616 N   0  0  0  0  0  0  0  0  0  0  0  0
  -31.9420    4.7934  -43.8724 C   0  0  0  0  0  0  0  0  0  0  0  0
  -30.9083    5.9272  -43.7075 C   0  0  0  0  0  0  0  0  0  0  0  0
  -31.0122    6.2783  -42.1999 C   0  0  0  0  0  0  0  0  0  0  0  0
  -32.5258    6.0812  -41.9363 C   0  0  0  0  0  0  0  0  0  0  0  0
  -36.4112    2.6624  -45.6495 X   0  0  0  0  0  0  0  0  0  0  0  0
  1  2  1  0  0  0  0
  1  6  1  0  0  0  0
  1 12  1  0  0  0  0
  2  3  1  0  0  0  0
  3  4  1  0  0  0  0
  4  5  1  0  0  0  0
  5  6  1  0  0  0  0
  5  7  1  0  0  0  0
  7  8  1  0  0  0  0
  7 11  1  0  0  0  0
  8  9  1  0  0  0  0
  9 10  1  0  0  0  0
 10 11  1  0  0  0  0
M  END
> <Index>
19629

> <PropertyFieldDistance>
nan

$$$$
11618202
BBcorina  12272117083D 1   1.00000     0.00000 
CORINA 4.3.0 0026  30.10.2019
 16 17  0  0  0  0  0  0  0  0999 V2000
  -34.5874    6.0281  -41.3204 N   0  0  0  0  0  0  0  0  0  0  0  0
  -35.1702    5.5946  -42.5972 C   0  0  0  0  0  0  0  0  0  0  0  0
  -36.5314    4.9436  -42.3414 C   0  0  0  0  0  0  0  0  0  0  0  0
  -37.1514    4.5238  -43.6778 C   0  0  0  0  0  0  0  0  0  0  0  0
  -36.1971    3.6658  -44.3932 N   0  0  0  0  0  0  0  0  0  0  0  0
  -34.8291    4.1570  -44.6082 C   0  0  0  0  0  0  0  0  0  0  0  0
  -34.2367    4.5832  -43.2662 C   0  0  0  0  0  0  0  0  0  0  0  0
  -36.5677    2.4490  -44.8386 C   0  0  0  0  0  0  0  0  0  0  0  0
  -37.7184    2.0799  -44.7112 O   0  0  0  0  0  0  0  0  0  0  0  0
  -35.5722    1.5614  -45.4836 C   0  0  0  0  0  0  0  0  0  0  0  0
  -35.4339    0.2281  -45.0857 C   0  0  0  0  0  0  0  0  0  0  0  0
  -34.4932   -0.5643  -45.7146 C   0  0  0  0  0  0  0  0  0  0  0  0
  -33.7333   -0.0791  -46.6761 N   0  0  0  0  0  0  0  0  0  0  0  0
  -33.8311    1.1713  -47.0813 C   0  0  0  0  0  0  0  0  0  0  0  0
  -34.7490    2.0321  -46.5111 C   0  0  0  0  0  0  0  0  0  0  0  0
  -34.2697    4.6889  -40.3057 X   0  0  0  0  0  0  0  0  0  0  0  0
  1  2  1  0  0  0  0
  1 16  1  0  0  0  0
  2  3  1  0  0  0  0
  2  7  1  0  0  0  0
  3  4  1  0  0  0  0
  4  5  1  0  0  0  0
  5  6  1  0  0  0  0
  5  8  1  0  0  0  0
  6  7  1  0  0  0  0
  8  9  2  0  0  0  0
  8 10  1  0  0  0  0
 10 11  2  0  0  0  0
 10 15  1  0  0  0  0
 11 12  1  0  0  0  0
 12 13  2  0  0  0  0
 13 14  1  0  0  0  0
 14 15  2  0  0  0  0
M  END
> <Index>
19634

> <PropertyFieldDistance>
nan

$$$$
606738
BBcorina  12272117083D 1   1.00000     0.00000 
CORINA 4.3.0 0026  30.10.2019
 13 13  0  0  0  0  0  0  0  0999 V2000
  -35.3478   -0.4104  -46.8996 C   0  0  0  0  0  0  0  0  0  0  0  0
  -36.2138    0.3452  -45.9846 N   0  0  0  0  0  0  0  0  0  0  0  0
  -36.5924   -0.4710  -44.8235 C   0  0  0  0  0  0  0  0  0  0  0  0
  -35.5689    1.5954  -45.5616 C   0  0  0  0  0  0  0  0  0  0  0  0
  -36.5687    2.4539  -44.8304 C   0  0  0  0  0  0  0  0  0  0  0  0
  -37.7063    2.0627  -44.6769 O   0  0  0  0  0  0  0  0  0  0  0  0
  -36.1984    3.6564  -44.3471 N   0  0  0  0  0  0  0  0  0  0  0  0
  -37.1582    4.5099  -43.6306 C   0  0  0  0  0  0  0  0  0  0  0  0
  -36.5301    4.9380  -42.3000 C   0  0  0  0  0  0  0  0  0  0  0  0
  -35.2213    5.5540  -42.5557 N   0  0  0  0  0  0  0  0  0  0  0  0
  -34.2878    4.5919  -43.1565 C   0  0  0  0  0  0  0  0  0  0  0  0
  -34.8224    4.1471  -44.5169 C   0  0  0  0  0  0  0  0  0  0  0  0
  -34.5707    6.2272  -41.1247 X   0  0  0  0  0  0  0  0  0  0  0  0
  1  2  1  0  0  0  0
  2  3  1  0  0  0  0
  2  4  1  0  0  0  0
  4  5  1  0  0  0  0
  5  6  2  0  0  0  0
  5  7  1  0  0  0  0
  7  8  1  0  0  0  0
  7 12  1  0  0  0  0
  8  9  1  0  0  0  0
  9 10  1  0  0  0  0
 10 11  1  0  0  0  0
 10 13  1  0  0  0  0
 11 12  1  0  0  0  0
M  END
> <Index>
19647

> <PropertyFieldDistance>
nan

$$$$
15739916
BBcorina  12272117083D 1   1.00000     0.00000 
CORINA 4.3.0 0026  30.10.2019
 10 11  0  0  0  0  0  0  0  0999 V2000
  -37.4998    4.2998  -42.1660 N   0  0  0  0  0  0  0  0  0  0  0  0
  -36.3188    3.9194  -42.9525 C   0  0  0  0  0  0  0  0  0  0  0  0
  -35.6827    2.5935  -42.3889 C   0  0  0  0  0  0  0  0  0  0  0  0
  -34.9145    2.0317  -43.6014 C   0  0  0  0  0  0  0  0  0  0  0  0
  -33.4919    2.6323  -43.6117 C   0  0  0  0  0  0  0  0  0  0  0  0
  -33.2330    2.9485  -44.9967 O   0  0  0  0  0  0  0  0  0  0  0  0
  -34.4707    3.4967  -45.4993 C   0  0  0  0  0  0  0  0  0  0  0  0
  -35.5760    2.6157  -44.8773 C   0  0  0  0  0  0  0  0  0  0  0  0
  -36.7233    3.5245  -44.3940 C   0  0  0  0  0  0  0  0  0  0  0  0
  -38.5623    2.9735  -41.9753 X   0  0  0  0  0  0  0  0  0  0  0  0
  1  2  1  0  0  0  0
  1 10  1  0  0  0  0
  2  3  1  0  0  0  0
  2  9  1  0  0  0  0
  3  4  1  0  0  0  0
  4  5  1  0  0  0  0
  4  8  1  0  0  0  0
  5  6  1  0  0  0  0
  6  7  1  0  0  0  0
  7  8  1  0  0  0  0
  8  9  1  0  0  0  0
M  END
> <Index>
19652

> <PropertyFieldDistance>
nan

$$$$
17649786
BBcorina  12272117083D 1   1.00000     0.00000 
CORINA 4.3.0 0026  30.10.2019
 11 12  0  0  0  0  0  0  0  0999 V2000
  -34.9438    7.0332  -44.7983 O   0  0  0  0  0  0  0  0  0  0  0  0
  -35.4567    7.1340  -43.4683 C   0  0  0  0  0  0  0  0  0  0  0  0
  -34.4577    7.7377  -42.4659 C   0  0  0  0  0  0  0  0  0  0  0  0
  -34.9517    6.6860  -41.4573 C   0  0  0  0  0  0  0  0  0  0  0  0
  -35.3477    5.8311  -42.6670 C   0  0  0  0  0  0  0  0  0  0  0  0
  -36.6817    5.1063  -42.4939 C   0  0  0  0  0  0  0  0  0  0  0  0
  -37.0319    4.3871  -43.8004 C   0  0  0  0  0  0  0  0  0  0  0  0
  -35.9438    3.4693  -44.1603 N   0  0  0  0  0  0  0  0  0  0  0  0
  -34.6963    4.1954  -44.4297 C   0  0  0  0  0  0  0  0  0  0  0  0
  -34.2337    4.9055  -43.1534 C   0  0  0  0  0  0  0  0  0  0  0  0
  -36.3828    2.4904  -45.4918 X   0  0  0  0  0  0  0  0  0  0  0  0
  1  2  1  0  0  0  0
  2  3  1  0  0  0  0
  2  5  1  0  0  0  0
  3  4  1  0  0  0  0
  4  5  1  0  0  0  0
  5  6  1  0  0  0  0
  5 10  1  0  0  0  0
  6  7  1  0  0  0  0
  7  8  1  0  0  0  0
  8  9  1  0  0  0  0
  8 11  1  0  0  0  0
  9 10  1  0  0  0  0
M  END
> <Index>
19661

> <PropertyFieldDistance>
nan

$$$$
14471102
BBcorina  12272117083D 1   1.00000     0.00000 
CORINA 4.3.0 0026  30.10.2019
 12 13  0  0  0  0  0  0  0  0999 V2000
  -35.4502    8.7577  -42.4857 F   0  0  0  0  0  0  0  0  0  0  0  0
  -35.0172    8.0860  -41.3375 C   0  0  0  0  0  0  0  0  0  0  0  0
  -35.3894    8.6682  -40.1210 F   0  0  0  0  0  0  0  0  0  0  0  0
  -33.6584    7.3854  -41.3990 C   0  0  0  0  0  0  0  0  0  0  0  0
  -34.9459    6.5588  -41.3971 C   0  0  0  0  0  0  0  0  0  0  0  0
  -35.3534    5.8832  -42.7080 C   0  0  0  0  0  0  0  0  0  0  0  0
  -36.6587    5.1099  -42.5007 C   0  0  0  0  0  0  0  0  0  0  0  0
  -37.0290    4.3869  -43.7978 C   0  0  0  0  0  0  0  0  0  0  0  0
  -35.9479    3.4664  -44.1722 N   0  0  0  0  0  0  0  0  0  0  0  0
  -34.6958    4.1916  -44.4227 C   0  0  0  0  0  0  0  0  0  0  0  0
  -34.2558    4.9088  -43.1443 C   0  0  0  0  0  0  0  0  0  0  0  0
  -36.3897    2.5209  -45.5268 X   0  0  0  0  0  0  0  0  0  0  0  0
  1  2  1  0  0  0  0
  2  3  1  0  0  0  0
  2  4  1  0  0  0  0
  2  5  1  0  0  0  0
  4  5  1  0  0  0  0
  5  6  1  0  0  0  0
  6  7  1  0  0  0  0
  6 11  1  0  0  0  0
  7  8  1  0  0  0  0
  8  9  1  0  0  0  0
  9 10  1  0  0  0  0
  9 12  1  0  0  0  0
 10 11  1  0  0  0  0
M  END
> <Index>
19665

> <PropertyFieldDistance>
nan

$$$$
14942356
BBcorina  12272117083D 1   1.00000     0.00000 
CORINA 4.3.0 0026  30.10.2019
 13 14  0  0  0  0  0  0  0  0999 V2000
  -35.7879    0.2226  -44.7155 N   0  0  0  0  0  0  0  0  0  0  0  0
  -35.6676    1.5990  -45.2146 C   0  0  0  0  0  0  0  0  0  0  0  0
  -36.3297    2.5599  -44.2250 C   0  0  0  0  0  0  0  0  0  0  0  0
  -36.2094    3.9364  -44.7241 N   0  0  0  0  0  0  0  0  0  0  0  0
  -37.0357    4.8581  -43.9317 C   0  0  0  0  0  0  0  0  0  0  0  0
  -36.6980    4.7065  -42.4430 C   0  0  0  0  0  0  0  0  0  0  0  0
  -35.2413    4.7822  -42.2929 N   0  0  0  0  0  0  0  0  0  0  0  0
  -34.5003    5.0094  -41.1344 N   0  0  0  0  0  0  0  0  0  0  0  0
  -33.2294    5.0026  -41.4565 C   0  0  0  0  0  0  0  0  0  0  0  0
  -33.1265    4.7681  -42.8341 C   0  0  0  0  0  0  0  0  0  0  0  0
  -34.3730    4.6351  -43.3228 C   0  0  0  0  0  0  0  0  0  0  0  0
  -34.8010    4.3695  -44.7445 C   0  0  0  0  0  0  0  0  0  0  0  0
  -35.0593   -0.8863  -45.7942 X   0  0  0  0  0  0  0  0  0  0  0  0
  1  2  1  0  0  0  0
  1 13  1  0  0  0  0
  2  3  1  0  0  0  0
  3  4  1  0  0  0  0
  4  5  1  0  0  0  0
  4 12  1  0  0  0  0
  5  6  1  0  0  0  0
  6  7  1  0  0  0  0
  7  8  1  0  0  0  0
  7 11  1  0  0  0  0
  8  9  2  0  0  0  0
  9 10  1  0  0  0  0
 10 11  2  0  0  0  0
 11 12  1  0  0  0  0
M  END
> <Index>
19673

> <PropertyFieldDistance>
nan

$$$$
13904526
BBcorina  12272117083D 1   1.00000     0.00000 
CORINA 4.3.0 0026  30.10.2019
 10 10  0  0  0  0  0  0  0  0999 V2000
  -36.0172    3.5927  -44.4913 N   0  0  0  0  0  0  0  0  0  0  0  0
  -36.3934    2.1751  -44.5752 C   0  0  0  0  0  0  0  0  0  0  0  0
  -36.1059    1.6538  -45.9847 C   0  0  0  0  0  0  0  0  0  0  0  0
  -36.3695    0.2331  -46.0168 C   0  0  0  0  0  0  0  0  0  0  0  0
  -35.9575   -0.4309  -47.3421 C   0  0  0  0  0  0  0  0  0  0  0  0
  -37.1005   -0.3064  -48.3172 C   0  0  0  0  0  0  0  0  0  0  0  0
  -36.8779    1.1386  -49.4079 S   0  0  0  0  0  0  0  0  0  0  0  0
  -36.2458    2.4589  -48.3195 C   0  0  0  0  0  0  0  0  0  0  0  0
  -36.9553    2.4514  -46.9894 C   0  0  0  0  0  0  0  0  0  0  0  0
  -36.3229    4.2163  -42.9288 X   0  0  0  0  0  0  0  0  0  0  0  0
  1  2  1  0  0  0  0
  1 10  1  0  0  0  0
  2  3  1  0  0  0  0
  3  4  1  0  0  0  0
  3  9  1  0  0  0  0
  4  5  1  0  0  0  0
  5  6  1  0  0  0  0
  6  7  1  0  0  0  0
  7  8  1  0  0  0  0
  8  9  1  0  0  0  0
M  END
> <Index>
19685

> <PropertyFieldDistance>
nan

$$$$
13890632
BBcorina  12272117083D 1   1.00000     0.00000 
CORINA 4.3.0 0026  30.10.2019
 10 10  0  0  0  0  0  0  0  0999 V2000
  -32.8482    3.9854  -41.6967 C   0  0  0  0  0  0  0  0  0  0  0  0
  -34.2985    4.1056  -41.4962 N   0  0  0  0  0  0  0  0  0  0  0  0
  -34.6000    4.8097  -40.2426 C   0  0  0  0  0  0  0  0  0  0  0  0
  -34.9348    4.7718  -42.6403 C   0  0  0  0  0  0  0  0  0  0  0  0
  -34.3689    6.1826  -42.8143 C   0  0  0  0  0  0  0  0  0  0  0  0
  -36.4674    4.8265  -42.4451 C   0  0  0  0  0  0  0  0  0  0  0  0
  -37.0083    4.5497  -43.8703 C   0  0  0  0  0  0  0  0  0  0  0  0
  -36.0599    3.5385  -44.4034 N   0  0  0  0  0  0  0  0  0  0  0  0
  -34.7221    3.9485  -43.9242 C   0  0  0  0  0  0  0  0  0  0  0  0
  -36.1109    3.4912  -46.1120 X   0  0  0  0  0  0  0  0  0  0  0  0
  1  2  1  0  0  0  0
  2  3  1  0  0  0  0
  2  4  1  0  0  0  0
  4  5  1  0  0  0  0
  4  6  1  0  0  0  0
  4  9  1  0  0  0  0
  6  7  1  0  0  0  0
  7  8  1  0  0  0  0
  8  9  1  0  0  0  0
  8 10  1  0  0  0  0
M  END
> <Index>
19698

> <PropertyFieldDistance>
nan

$$$$
14263262
BBcorina  12272117083D 1   1.00000     0.00000 
CORINA 4.3.0 0026  30.10.2019
 12 14  0  0  0  0  0  0  0  0999 V2000
  -38.6868    3.0436  -42.3251 N   0  0  0  0  0  0  0  0  0  0  0  0
  -38.5370    3.8905  -43.5161 C   0  0  0  0  0  0  0  0  0  0  0  0
  -37.0670    4.2803  -43.6831 C   0  0  0  0  0  0  0  0  0  0  0  0
  -36.3918    5.2141  -42.6479 C   0  0  0  0  0  0  0  0  0  0  0  0
  -35.3698    5.3973  -43.8007 C   0  0  0  0  0  0  0  0  0  0  0  0
  -36.6934    5.4332  -44.6607 C   0  0  0  0  0  0  0  0  0  0  0  0
  -36.0689    3.1713  -43.8578 N   0  0  0  0  0  0  0  0  0  0  0  0
  -34.7937    3.9476  -43.9529 C   0  0  0  0  0  0  0  0  0  0  0  0
  -36.3238    2.4239  -45.0966 C   0  0  0  0  0  0  0  0  0  0  0  0
  -35.3228    1.3330  -45.4823 C   0  0  0  0  0  0  0  0  0  0  0  0
  -36.7105    0.9487  -44.9651 C   0  0  0  0  0  0  0  0  0  0  0  0
  -40.3186    2.5843  -42.1010 X   0  0  0  0  0  0  0  0  0  0  0  0
  1  2  1  0  0  0  0
  1 12  1  0  0  0  0
  2  3  1  0  0  0  0
  3  4  1  0  0  0  0
  3  6  1  0  0  0  0
  3  7  1  0  0  0  0
  4  5  1  0  0  0  0
  5  6  1  0  0  0  0
  5  8  1  0  0  0  0
  7  8  1  0  0  0  0
  7  9  1  0  0  0  0
  9 10  1  0  0  0  0
  9 11  1  0  0  0  0
 10 11  1  0  0  0  0
M  END
> <Index>
19703

> <PropertyFieldDistance>
nan

$$$$
9360472
BBcorina  12272117083D 1   1.00000     0.00000 
CORINA 4.3.0 0026  30.10.2019
 12 13  0  0  0  0  0  0  0  0999 V2000
  -38.6072    2.5058  -44.2912 N   0  0  0  0  0  0  0  0  0  0  0  0
  -38.3030    3.5225  -43.2754 C   0  0  0  0  0  0  0  0  0  0  0  0
  -37.0434    4.2896  -43.6828 C   0  0  0  0  0  0  0  0  0  0  0  0
  -36.6556    5.2623  -42.5668 C   0  0  0  0  0  0  0  0  0  0  0  0
  -35.3835    6.0131  -42.9701 C   0  0  0  0  0  0  0  0  0  0  0  0
  -34.2682    5.0015  -43.2486 C   0  0  0  0  0  0  0  0  0  0  0  0
  -34.7264    4.0354  -44.3452 C   0  0  0  0  0  0  0  0  0  0  0  0
  -35.9455    3.3415  -43.9110 N   0  0  0  0  0  0  0  0  0  0  0  0
  -36.3356    2.3073  -44.8787 C   0  0  0  0  0  0  0  0  0  0  0  0
  -35.2980    1.2382  -45.2269 C   0  0  0  0  0  0  0  0  0  0  0  0
  -36.5042    0.8791  -44.3568 C   0  0  0  0  0  0  0  0  0  0  0  0
  -40.0113    1.6235  -43.8738 X   0  0  0  0  0  0  0  0  0  0  0  0
  1  2  1  0  0  0  0
  1 12  1  0  0  0  0
  2  3  1  0  0  0  0
  3  4  1  0  0  0  0
  3  8  1  0  0  0  0
  4  5  1  0  0  0  0
  5  6  1  0  0  0  0
  6  7  1  0  0  0  0
  7  8  1  0  0  0  0
  8  9  1  0  0  0  0
  9 10  1  0  0  0  0
  9 11  1  0  0  0  0
 10 11  1  0  0  0  0
M  END
> <Index>
19725

> <PropertyFieldDistance>
nan

$$$$
16772698
BBcorina  12272117083D 1   1.00000     0.00000 
CORINA 4.3.0 0026  30.10.2019
 13 13  0  0  0  0  0  0  0  0999 V2000
  -36.3352    2.3075  -44.8787 C   0  0  0  0  0  0  0  0  0  0  0  0
  -35.9452    3.3417  -43.9110 N   0  0  0  0  0  0  0  0  0  0  0  0
  -37.0441    4.2899  -43.6826 C   0  0  0  0  0  0  0  0  0  0  0  0
  -36.6553    5.2625  -42.5668 C   0  0  0  0  0  0  0  0  0  0  0  0
  -35.3832    6.0133  -42.9701 C   0  0  0  0  0  0  0  0  0  0  0  0
  -34.2689    5.0006  -43.2489 C   0  0  0  0  0  0  0  0  0  0  0  0
  -34.7260    4.0355  -44.3451 C   0  0  0  0  0  0  0  0  0  0  0  0
  -34.9561    6.9432  -41.8327 C   0  0  0  0  0  0  0  0  0  0  0  0
  -34.6828    6.1174  -40.5741 C   0  0  0  0  0  0  0  0  0  0  0  0
  -35.9996    7.8830  -41.5686 O   0  0  0  0  0  0  0  0  0  0  0  0
  -33.6850    7.6928  -42.2368 C   0  0  0  0  0  0  0  0  0  0  0  0
  -33.2077    8.4947  -41.1023 N   0  0  0  0  0  0  0  0  0  0  0  0
  -31.7852    9.3507  -41.5122 X   0  0  0  0  0  0  0  0  0  0  0  0
  1  2  1  0  0  0  0
  2  3  1  0  0  0  0
  2  7  1  0  0  0  0
  3  4  1  0  0  0  0
  4  5  1  0  0  0  0
  5  6  1  0  0  0  0
  5  8  1  0  0  0  0
  6  7  1  0  0  0  0
  8  9  1  0  0  0  0
  8 10  1  0  0  0  0
  8 11  1  0  0  0  0
 11 12  1  0  0  0  0
 12 13  1  0  0  0  0
M  END
> <Index>
19737

> <PropertyFieldDistance>
nan

$$$$
13570832
BBcorina  12272117083D 1   1.00000     0.00000 
CORINA 4.3.0 0026  30.10.2019
 11 11  0  0  0  0  0  0  0  0999 V2000
  -32.6573    6.8632  -40.7705 C   0  0  0  0  0  0  0  0  0  0  0  0
  -33.7254    7.2956  -41.6156 O   0  0  0  0  0  0  0  0  0  0  0  0
  -34.9622    6.5319  -41.4494 N   0  0  0  0  0  0  0  0  0  0  0  0
  -36.0433    7.3854  -40.9387 C   0  0  0  0  0  0  0  0  0  0  0  0
  -35.3535    5.8833  -42.7079 C   0  0  0  0  0  0  0  0  0  0  0  0
  -36.6585    5.1099  -42.5008 C   0  0  0  0  0  0  0  0  0  0  0  0
  -37.0291    4.3869  -43.7977 C   0  0  0  0  0  0  0  0  0  0  0  0
  -35.9480    3.4664  -44.1723 N   0  0  0  0  0  0  0  0  0  0  0  0
  -34.6958    4.1916  -44.4226 C   0  0  0  0  0  0  0  0  0  0  0  0
  -34.2559    4.9088  -43.1442 C   0  0  0  0  0  0  0  0  0  0  0  0
  -36.3899    2.5211  -45.5270 X   0  0  0  0  0  0  0  0  0  0  0  0
  1  2  1  0  0  0  0
  2  3  1  0  0  0  0
  3  4  1  0  0  0  0
  3  5  1  0  0  0  0
  5  6  1  0  0  0  0
  5 10  1  0  0  0  0
  6  7  1  0  0  0  0
  7  8  1  0  0  0  0
  8  9  1  0  0  0  0
  8 11  1  0  0  0  0
  9 10  1  0  0  0  0
M  END
> <Index>
19740

> <PropertyFieldDistance>
nan

$$$$
13580210
BBcorina  12272117083D 1   1.00000     0.00000 
CORINA 4.3.0 0026  30.10.2019
 12 12  0  0  0  0  0  0  0  0999 V2000
  -34.7414    5.4948  -40.3170 C   0  0  0  0  0  0  0  0  0  0  0  0
  -34.9458    6.5588  -41.3972 C   0  0  0  0  0  0  0  0  0  0  0  0
  -33.6416    7.3311  -41.6056 C   0  0  0  0  0  0  0  0  0  0  0  0
  -36.0468    7.5263  -40.9582 C   0  0  0  0  0  0  0  0  0  0  0  0
  -35.3534    5.8832  -42.7081 C   0  0  0  0  0  0  0  0  0  0  0  0
  -35.5414    6.8749  -43.7196 O   0  0  0  0  0  0  0  0  0  0  0  0
  -36.6587    5.1099  -42.5007 C   0  0  0  0  0  0  0  0  0  0  0  0
  -37.0290    4.3869  -43.7977 C   0  0  0  0  0  0  0  0  0  0  0  0
  -35.9480    3.4664  -44.1723 N   0  0  0  0  0  0  0  0  0  0  0  0
  -34.6958    4.1916  -44.4226 C   0  0  0  0  0  0  0  0  0  0  0  0
  -34.2558    4.9088  -43.1443 C   0  0  0  0  0  0  0  0  0  0  0  0
  -36.3899    2.5210  -45.5269 X   0  0  0  0  0  0  0  0  0  0  0  0
  1  2  1  0  0  0  0
  2  3  1  0  0  0  0
  2  4  1  0  0  0  0
  2  5  1  0  0  0  0
  5  6  1  0  0  0  0
  5  7  1  0  0  0  0
  5 11  1  0  0  0  0
  7  8  1  0  0  0  0
  8  9  1  0  0  0  0
  9 10  1  0  0  0  0
  9 12  1  0  0  0  0
 10 11  1  0  0  0  0
M  END
> <Index>
19742

> <PropertyFieldDistance>
nan

$$$$
11569324
BBcorina  12272117083D 1   1.00000     0.00000 
CORINA 4.3.0 0026  30.10.2019
 10 10  0  0  0  0  0  0  0  0999 V2000
  -36.3428   -1.7474  -47.4958 F   0  0  0  0  0  0  0  0  0  0  0  0
  -36.0923   -0.3718  -47.4473 C   0  0  0  0  0  0  0  0  0  0  0  0
  -36.9961    0.3468  -48.4510 C   0  0  0  0  0  0  0  0  0  0  0  0
  -36.7223    1.8512  -48.3979 C   0  0  0  0  0  0  0  0  0  0  0  0
  -37.0097    2.3725  -46.9884 C   0  0  0  0  0  0  0  0  0  0  0  0
  -36.1059    1.6538  -45.9847 C   0  0  0  0  0  0  0  0  0  0  0  0
  -36.3933    2.1751  -44.5752 C   0  0  0  0  0  0  0  0  0  0  0  0
  -36.0173    3.5927  -44.4913 N   0  0  0  0  0  0  0  0  0  0  0  0
  -36.3798    0.1495  -46.0378 C   0  0  0  0  0  0  0  0  0  0  0  0
  -36.3231    4.2162  -42.9287 X   0  0  0  0  0  0  0  0  0  0  0  0
  1  2  1  0  0  0  0
  2  3  1  0  0  0  0
  2  9  1  0  0  0  0
  3  4  1  0  0  0  0
  4  5  1  0  0  0  0
  5  6  1  0  0  0  0
  6  7  1  0  0  0  0
  6  9  1  0  0  0  0
  7  8  1  0  0  0  0
  8 10  1  0  0  0  0
M  END
> <Index>
19779

> <PropertyFieldDistance>
nan

$$$$
13760000
BBcorina  12272117083D 1   1.00000     0.00000 
CORINA 4.3.0 0026  30.10.2019
 11 12  0  0  0  0  0  0  0  0999 V2000
  -36.0173    3.5927  -44.4913 N   0  0  0  0  0  0  0  0  0  0  0  0
  -36.3933    2.1751  -44.5753 C   0  0  0  0  0  0  0  0  0  0  0  0
  -36.1059    1.6538  -45.9847 C   0  0  0  0  0  0  0  0  0  0  0  0
  -34.5989    1.6881  -46.2436 C   0  0  0  0  0  0  0  0  0  0  0  0
  -34.3085    1.2386  -47.6764 C   0  0  0  0  0  0  0  0  0  0  0  0
  -34.7570   -0.2150  -47.8557 C   0  0  0  0  0  0  0  0  0  0  0  0
  -36.2415   -0.3237  -47.4952 C   0  0  0  0  0  0  0  0  0  0  0  0
  -37.2603   -0.1475  -48.6209 C   0  0  0  0  0  0  0  0  0  0  0  0
  -37.0145   -1.5332  -48.0194 C   0  0  0  0  0  0  0  0  0  0  0  0
  -36.6122    0.2135  -46.1096 C   0  0  0  0  0  0  0  0  0  0  0  0
  -36.3229    4.2162  -42.9287 X   0  0  0  0  0  0  0  0  0  0  0  0
  1  2  1  0  0  0  0
  1 11  1  0  0  0  0
  2  3  1  0  0  0  0
  3  4  1  0  0  0  0
  3 10  1  0  0  0  0
  4  5  1  0  0  0  0
  5  6  1  0  0  0  0
  6  7  1  0  0  0  0
  7  8  1  0  0  0  0
  7  9  1  0  0  0  0
  7 10  1  0  0  0  0
  8  9  1  0  0  0  0
M  END
> <Index>
19780

> <PropertyFieldDistance>
nan

$$$$
5456520
BBcorina  12272117083D 1   1.00000     0.00000 
CORINA 4.3.0 0026  30.10.2019
  9  9  0  0  0  0  0  0  0  0999 V2000
  -37.8817    5.1989  -41.4656 C   0  0  0  0  0  0  0  0  0  0  0  0
  -36.8449    5.2338  -42.5902 C   0  0  0  0  0  0  0  0  0  0  0  0
  -36.9722    3.9697  -43.4472 C   0  0  0  0  0  0  0  0  0  0  0  0
  -36.0090    4.0169  -44.5496 N   0  0  0  0  0  0  0  0  0  0  0  0
  -34.6311    3.8029  -44.1016 C   0  0  0  0  0  0  0  0  0  0  0  0
  -34.1302    5.0403  -43.3491 C   0  0  0  0  0  0  0  0  0  0  0  0
  -35.1720    5.2825  -41.8778 S   0  0  0  0  0  0  0  0  0  0  0  0
  -35.0025    4.1848  -40.9915 O   0  0  0  0  0  0  0  0  0  0  0  0
  -36.4322    2.9084  -45.7810 X   0  0  0  0  0  0  0  0  0  0  0  0
  1  2  1  0  0  0  0
  2  3  1  0  0  0  0
  2  7  1  0  0  0  0
  3  4  1  0  0  0  0
  4  5  1  0  0  0  0
  4  9  1  0  0  0  0
  5  6  1  0  0  0  0
  6  7  1  0  0  0  0
  7  8  2  0  0  0  0
M  END
> <Index>
19808

> <PropertyFieldDistance>
nan

$$$$
12130266
BBcorina  12272117083D 1   1.00000     0.00000 
CORINA 4.3.0 0026  30.10.2019
 11 12  0  0  0  0  0  0  0  0999 V2000
  -36.9241    3.7745  -40.1973 O   0  0  0  0  0  0  0  0  0  0  0  0
  -37.0231    3.5594  -41.6065 C   0  0  0  0  0  0  0  0  0  0  0  0
  -36.6610    4.8489  -42.3460 C   0  0  0  0  0  0  0  0  0  0  0  0
  -35.1897    5.1892  -42.0912 C   0  0  0  0  0  0  0  0  0  0  0  0
  -34.4426    5.1970  -43.4287 C   0  0  0  0  0  0  0  0  0  0  0  0
  -35.0452    6.2772  -44.3329 C   0  0  0  0  0  0  0  0  0  0  0  0
  -36.5186    5.9463  -44.5872 C   0  0  0  0  0  0  0  0  0  0  0  0
  -36.8786    4.6553  -43.8486 C   0  0  0  0  0  0  0  0  0  0  0  0
  -36.0127    3.5359  -44.3206 N   0  0  0  0  0  0  0  0  0  0  0  0
  -34.5924    3.8265  -44.0939 C   0  0  0  0  0  0  0  0  0  0  0  0
  -36.3127    3.1931  -45.9687 X   0  0  0  0  0  0  0  0  0  0  0  0
  1  2  1  0  0  0  0
  2  3  1  0  0  0  0
  3  4  1  0  0  0  0
  3  8  1  0  0  0  0
  4  5  1  0  0  0  0
  5  6  1  0  0  0  0
  5 10  1  0  0  0  0
  6  7  1  0  0  0  0
  7  8  1  0  0  0  0
  8  9  1  0  0  0  0
  9 10  1  0  0  0  0
  9 11  1  0  0  0  0
M  END
> <Index>
19813

> <PropertyFieldDistance>
nan

$$$$
12131144
BBcorina  12272117083D 1   1.00000     0.00000 
CORINA 4.3.0 0026  30.10.2019
 11 11  0  0  0  0  0  0  0  0999 V2000
  -36.4491    4.1044  -41.3787 C   0  0  0  0  0  0  0  0  0  0  0  0
  -36.6101    5.1169  -42.5144 C   0  0  0  0  0  0  0  0  0  0  0  0
  -37.0250    4.3873  -43.7948 C   0  0  0  0  0  0  0  0  0  0  0  0
  -35.9555    3.4605  -44.1931 N   0  0  0  0  0  0  0  0  0  0  0  0
  -34.6941    4.1836  -44.4110 C   0  0  0  0  0  0  0  0  0  0  0  0
  -34.3026    4.9152  -43.1244 C   0  0  0  0  0  0  0  0  0  0  0  0
  -35.3668    5.7881  -42.7357 O   0  0  0  0  0  0  0  0  0  0  0  0
  -37.6835    6.1407  -42.1391 C   0  0  0  0  0  0  0  0  0  0  0  0
  -37.8277    7.0671  -43.1774 F   0  0  0  0  0  0  0  0  0  0  0  0
  -38.9006    5.4839  -41.9277 F   0  0  0  0  0  0  0  0  0  0  0  0
  -36.4010    2.5722  -45.5846 X   0  0  0  0  0  0  0  0  0  0  0  0
  1  2  1  0  0  0  0
  2  3  1  0  0  0  0
  2  7  1  0  0  0  0
  2  8  1  0  0  0  0
  3  4  1  0  0  0  0
  4  5  1  0  0  0  0
  4 11  1  0  0  0  0
  5  6  1  0  0  0  0
  6  7  1  0  0  0  0
  8  9  1  0  0  0  0
  8 10  1  0  0  0  0
M  END
> <Index>
19817

> <PropertyFieldDistance>
nan

$$$$
17649302
BBcorina  12272117083D 1   1.00000     0.00000 
CORINA 4.3.0 0026  30.10.2019
 10 11  0  0  0  0  0  0  0  0999 V2000
  -35.9578    3.4732  -44.1626 N   0  0  0  0  0  0  0  0  0  0  0  0
  -36.9689    4.4878  -43.8341 C   0  0  0  0  0  0  0  0  0  0  0  0
  -36.7049    5.0410  -42.4265 C   0  0  0  0  0  0  0  0  0  0  0  0
  -35.2448    5.4066  -42.3397 C   0  0  0  0  0  0  0  0  0  0  0  0
  -34.6165    6.1716  -41.4401 O   0  0  0  0  0  0  0  0  0  0  0  0
  -33.3168    6.2079  -41.7770 C   0  0  0  0  0  0  0  0  0  0  0  0
  -33.1393    5.4878  -42.8519 N   0  0  0  0  0  0  0  0  0  0  0  0
  -34.3184    4.9783  -43.2218 C   0  0  0  0  0  0  0  0  0  0  0  0
  -34.6372    4.0834  -44.3927 C   0  0  0  0  0  0  0  0  0  0  0  0
  -36.4434    2.5375  -45.5089 X   0  0  0  0  0  0  0  0  0  0  0  0
  1  2  1  0  0  0  0
  1  9  1  0  0  0  0
  1 10  1  0  0  0  0
  2  3  1  0  0  0  0
  3  4  1  0  0  0  0
  4  5  1  0  0  0  0
  4  8  2  0  0  0  0
  5  6  1  0  0  0  0
  6  7  2  0  0  0  0
  7  8  1  0  0  0  0
  8  9  1  0  0  0  0
M  END
> <Index>
19858

> <PropertyFieldDistance>
nan

$$$$
14034012
BBcorina  12272117083D 1   1.00000     0.00000 
CORINA 4.3.0 0026  30.10.2019
 13 14  0  0  0  0  0  0  0  0999 V2000
  -36.0192    3.9414  -44.5845 N   0  0  0  0  0  0  0  0  0  0  0  0
  -36.9723    4.0086  -43.4695 C   0  0  0  0  0  0  0  0  0  0  0  0
  -36.6793    5.2476  -42.6202 C   0  0  0  0  0  0  0  0  0  0  0  0
  -35.2461    5.1676  -42.0870 C   0  0  0  0  0  0  0  0  0  0  0  0
  -34.9268    6.4323  -41.2874 C   0  0  0  0  0  0  0  0  0  0  0  0
  -33.6005    6.3032  -40.6785 N   0  0  0  0  0  0  0  0  0  0  0  0
  -33.3204    5.7796  -39.4452 C   0  0  0  0  0  0  0  0  0  0  0  0
  -31.9852    5.8520  -39.2852 C   0  0  0  0  0  0  0  0  0  0  0  0
  -31.4643    6.4048  -40.3908 N   0  0  0  0  0  0  0  0  0  0  0  0
  -32.4259    6.6776  -41.2296 C   0  0  0  0  0  0  0  0  0  0  0  0
  -34.2770    5.0496  -43.2665 C   0  0  0  0  0  0  0  0  0  0  0  0
  -34.6396    3.8164  -44.0970 C   0  0  0  0  0  0  0  0  0  0  0  0
  -36.4111    2.6621  -45.6494 X   0  0  0  0  0  0  0  0  0  0  0  0
  1  2  1  0  0  0  0
  1 12  1  0  0  0  0
  1 13  1  0  0  0  0
  2  3  1  0  0  0  0
  3  4  1  0  0  0  0
  4  5  1  0  0  0  0
  4 11  1  0  0  0  0
  5  6  1  0  0  0  0
  6  7  1  0  0  0  0
  6 10  1  0  0  0  0
  7  8  2  0  0  0  0
  8  9  1  0  0  0  0
  9 10  2  0  0  0  0
 11 12  1  0  0  0  0
M  END
> <Index>
19866

> <PropertyFieldDistance>
nan

$$$$
13614890
BBcorina  12272117083D 1   1.00000     0.00000 
CORINA 4.3.0 0026  30.10.2019
 10 10  0  0  0  0  0  0  0  0999 V2000
  -38.3967    4.0936  -44.0215 C   0  0  0  0  0  0  0  0  0  0  0  0
  -36.9722    4.0084  -43.4698 C   0  0  0  0  0  0  0  0  0  0  0  0
  -36.6797    5.2481  -42.6192 C   0  0  0  0  0  0  0  0  0  0  0  0
  -35.2462    5.1673  -42.0871 C   0  0  0  0  0  0  0  0  0  0  0  0
  -34.2769    5.0495  -43.2666 C   0  0  0  0  0  0  0  0  0  0  0  0
  -34.3711    6.1946  -44.0648 F   0  0  0  0  0  0  0  0  0  0  0  0
  -32.9695    4.9217  -42.7857 F   0  0  0  0  0  0  0  0  0  0  0  0
  -34.6395    3.8163  -44.0972 C   0  0  0  0  0  0  0  0  0  0  0  0
  -36.0190    3.9413  -44.5848 N   0  0  0  0  0  0  0  0  0  0  0  0
  -36.4107    2.6621  -45.6499 X   0  0  0  0  0  0  0  0  0  0  0  0
  1  2  1  0  0  0  0
  2  3  1  0  0  0  0
  2  9  1  0  0  0  0
  3  4  1  0  0  0  0
  4  5  1  0  0  0  0
  5  6  1  0  0  0  0
  5  7  1  0  0  0  0
  5  8  1  0  0  0  0
  8  9  1  0  0  0  0
  9 10  1  0  0  0  0
M  END
> <Index>
19876

> <PropertyFieldDistance>
nan

$$$$
13940494
BBcorina  12272117083D 1   1.00000     0.00000 
CORINA 4.3.0 0026  30.10.2019
 14 15  0  0  0  0  0  0  0  0999 V2000
  -35.8424   -0.3527  -44.2495 C   0  0  0  0  0  0  0  0  0  0  0  0
  -35.2208    0.4695  -45.3489 C   0  0  0  0  0  0  0  0  0  0  0  0
  -34.2052    0.0955  -46.1517 O   0  0  0  0  0  0  0  0  0  0  0  0
  -33.9535    1.1087  -46.9911 C   0  0  0  0  0  0  0  0  0  0  0  0
  -34.7805    2.0815  -46.7334 N   0  0  0  0  0  0  0  0  0  0  0  0
  -35.5754    1.7129  -45.7132 C   0  0  0  0  0  0  0  0  0  0  0  0
  -36.6706    2.5427  -45.0944 C   0  0  0  0  0  0  0  0  0  0  0  0
  -36.1183    3.3364  -43.9885 N   0  0  0  0  0  0  0  0  0  0  0  0
  -37.0927    4.3293  -43.5148 C   0  0  0  0  0  0  0  0  0  0  0  0
  -36.5104    5.0791  -42.3144 C   0  0  0  0  0  0  0  0  0  0  0  0
  -35.2517    5.7273  -42.7086 N   0  0  0  0  0  0  0  0  0  0  0  0
  -34.2772    4.7345  -43.1823 C   0  0  0  0  0  0  0  0  0  0  0  0
  -34.8596    3.9845  -44.3828 C   0  0  0  0  0  0  0  0  0  0  0  0
  -34.6087    6.6511  -41.4213 X   0  0  0  0  0  0  0  0  0  0  0  0
  1  2  1  0  0  0  0
  2  3  1  0  0  0  0
  2  6  2  0  0  0  0
  3  4  1  0  0  0  0
  4  5  2  0  0  0  0
  5  6  1  0  0  0  0
  6  7  1  0  0  0  0
  7  8  1  0  0  0  0
  8  9  1  0  0  0  0
  8 13  1  0  0  0  0
  9 10  1  0  0  0  0
 10 11  1  0  0  0  0
 11 12  1  0  0  0  0
 11 14  1  0  0  0  0
 12 13  1  0  0  0  0
M  END
> <Index>
19887

> <PropertyFieldDistance>
nan

$$$$
13953460
BBcorina  12272117083D 1   1.00000     0.00000 
CORINA 4.3.0 0026  30.10.2019
 10 10  0  0  0  0  0  0  0  0999 V2000
  -35.9480    3.4664  -44.1723 N   0  0  0  0  0  0  0  0  0  0  0  0
  -37.0291    4.3869  -43.7977 C   0  0  0  0  0  0  0  0  0  0  0  0
  -36.6585    5.1099  -42.5008 C   0  0  0  0  0  0  0  0  0  0  0  0
  -35.3535    5.8833  -42.7079 C   0  0  0  0  0  0  0  0  0  0  0  0
  -34.9460    6.5589  -41.3971 C   0  0  0  0  0  0  0  0  0  0  0  0
  -35.9435    7.5811  -41.0411 C   0  0  0  0  0  0  0  0  0  0  0  0
  -36.7391    8.3963  -40.7571 C   0  0  0  0  0  0  0  0  0  0  0  0
  -34.2559    4.9088  -43.1442 C   0  0  0  0  0  0  0  0  0  0  0  0
  -34.6958    4.1916  -44.4226 C   0  0  0  0  0  0  0  0  0  0  0  0
  -36.3899    2.5211  -45.5270 X   0  0  0  0  0  0  0  0  0  0  0  0
  1  2  1  0  0  0  0
  1  9  1  0  0  0  0
  1 10  1  0  0  0  0
  2  3  1  0  0  0  0
  3  4  1  0  0  0  0
  4  5  1  0  0  0  0
  4  8  1  0  0  0  0
  5  6  1  0  0  0  0
  6  7  3  0  0  0  0
  8  9  1  0  0  0  0
M  END
> <Index>
19888

> <PropertyFieldDistance>
nan

$$$$
8332562
BBcorina  12272117083D 1   1.00000     0.00000 
CORINA 4.3.0 0026  30.10.2019
  9  9  0  0  0  0  0  0  0  0999 V2000
  -37.5649    5.3169  -41.4216 C   0  0  0  0  0  0  0  0  0  0  0  0
  -36.6293    5.2502  -42.6304 C   0  0  0  0  0  0  0  0  0  0  0  0
  -36.9724    4.0211  -43.4763 C   0  0  0  0  0  0  0  0  0  0  0  0
  -36.0216    3.9203  -44.5930 N   0  0  0  0  0  0  0  0  0  0  0  0
  -34.6419    3.8204  -44.0951 C   0  0  0  0  0  0  0  0  0  0  0  0
  -34.3222    5.0515  -43.2429 C   0  0  0  0  0  0  0  0  0  0  0  0
  -32.9157    4.9154  -42.6561 C   0  0  0  0  0  0  0  0  0  0  0  0
  -35.2752    5.1506  -42.1812 O   0  0  0  0  0  0  0  0  0  0  0  0
  -36.4046    2.5973  -45.6065 X   0  0  0  0  0  0  0  0  0  0  0  0
  1  2  1  0  0  0  0
  2  3  1  0  0  0  0
  2  8  1  0  0  0  0
  3  4  1  0  0  0  0
  4  5  1  0  0  0  0
  4  9  1  0  0  0  0
  5  6  1  0  0  0  0
  6  7  1  0  0  0  0
  6  8  1  0  0  0  0
M  END
> <Index>
19893

> <PropertyFieldDistance>
nan

$$$$
14058572
BBcorina  12272117083D 1   1.00000     0.00000 
CORINA 4.3.0 0026  30.10.2019
 13 14  0  0  0  0  0  0  0  0999 V2000
  -34.3802    4.8153  -38.6654 I   0  0  0  0  0  0  0  0  0  0  0  0
  -34.5731    6.4606  -39.9479 C   0  0  0  0  0  0  0  0  0  0  0  0
  -34.3697    7.7570  -39.6163 C   0  0  0  0  0  0  0  0  0  0  0  0
  -34.6010    8.5041  -40.7166 N   0  0  0  0  0  0  0  0  0  0  0  0
  -34.9520    7.6377  -41.7600 N   0  0  0  0  0  0  0  0  0  0  0  0
  -34.9316    6.4133  -41.2993 C   0  0  0  0  0  0  0  0  0  0  0  0
  -35.2462    5.1676  -42.0870 C   0  0  0  0  0  0  0  0  0  0  0  0
  -36.6793    5.2476  -42.6202 C   0  0  0  0  0  0  0  0  0  0  0  0
  -36.9723    4.0087  -43.4695 C   0  0  0  0  0  0  0  0  0  0  0  0
  -36.0191    3.9414  -44.5845 N   0  0  0  0  0  0  0  0  0  0  0  0
  -34.6396    3.8164  -44.0970 C   0  0  0  0  0  0  0  0  0  0  0  0
  -34.2770    5.0496  -43.2665 C   0  0  0  0  0  0  0  0  0  0  0  0
  -36.4111    2.6621  -45.6494 X   0  0  0  0  0  0  0  0  0  0  0  0
  1  2  1  0  0  0  0
  2  3  2  0  0  0  0
  2  6  1  0  0  0  0
  3  4  1  0  0  0  0
  4  5  1  0  0  0  0
  5  6  2  0  0  0  0
  6  7  1  0  0  0  0
  7  8  1  0  0  0  0
  7 12  1  0  0  0  0
  8  9  1  0  0  0  0
  9 10  1  0  0  0  0
 10 11  1  0  0  0  0
 10 13  1  0  0  0  0
 11 12  1  0  0  0  0
M  END
> <Index>
19911

> <PropertyFieldDistance>
nan

$$$$
17567694
BBcorina  12272117083D 1   1.00000     0.00000 
CORINA 4.3.0 0026  30.10.2019
 11 11  0  0  0  0  0  0  0  0999 V2000
  -31.3581    4.7286  -44.0618 C   0  0  0  0  0  0  0  0  0  0  0  0
  -32.5359    4.8781  -42.6261 Si  0  0  0  0  0  0  0  0  0  0  0  0
  -32.4132    3.3546  -41.5609 C   0  0  0  0  0  0  0  0  0  0  0  0
  -32.0954    6.3797  -41.6153 C   0  0  0  0  0  0  0  0  0  0  0  0
  -34.2770    5.0496  -43.2665 C   0  0  0  0  0  0  0  0  0  0  0  0
  -35.2462    5.1675  -42.0870 C   0  0  0  0  0  0  0  0  0  0  0  0
  -36.6793    5.2476  -42.6202 C   0  0  0  0  0  0  0  0  0  0  0  0
  -36.9723    4.0087  -43.4695 C   0  0  0  0  0  0  0  0  0  0  0  0
  -36.0191    3.9414  -44.5845 N   0  0  0  0  0  0  0  0  0  0  0  0
  -34.6396    3.8164  -44.0970 C   0  0  0  0  0  0  0  0  0  0  0  0
  -36.4111    2.6622  -45.6495 X   0  0  0  0  0  0  0  0  0  0  0  0
  1  2  1  0  0  0  0
  2  3  1  0  0  0  0
  2  4  1  0  0  0  0
  2  5  1  0  0  0  0
  5  6  1  0  0  0  0
  5 10  1  0  0  0  0
  6  7  1  0  0  0  0
  7  8  1  0  0  0  0
  8  9  1  0  0  0  0
  9 10  1  0  0  0  0
  9 11  1  0  0  0  0
M  END
> <Index>
19919

> <PropertyFieldDistance>
nan

$$$$
13462392
BBcorina  12272117083D 1   1.00000     0.00000 
CORINA 4.3.0 0026  30.10.2019
  9 10  0  0  0  0  0  0  0  0999 V2000
  -35.9996    3.7164  -44.2231 N   0  0  0  0  0  0  0  0  0  0  0  0
  -37.1885    4.5290  -43.8691 C   0  0  0  0  0  0  0  0  0  0  0  0
  -36.4755    4.7965  -42.5313 C   0  0  0  0  0  0  0  0  0  0  0  0
  -35.1648    4.4906  -43.2782 C   0  0  0  0  0  0  0  0  0  0  0  0
  -34.1841    3.6326  -42.4765 C   0  0  0  0  0  0  0  0  0  0  0  0
  -32.8608    3.3602  -43.2110 C   0  0  0  0  0  0  0  0  0  0  0  0
  -32.1591    3.5614  -41.8575 C   0  0  0  0  0  0  0  0  0  0  0  0
  -33.3624    4.4316  -41.4511 C   0  0  0  0  0  0  0  0  0  0  0  0
  -35.5212    4.0022  -45.8397 X   0  0  0  0  0  0  0  0  0  0  0  0
  1  2  1  0  0  0  0
  1  4  1  0  0  0  0
  1  9  1  0  0  0  0
  2  3  1  0  0  0  0
  3  4  1  0  0  0  0
  4  5  1  0  0  0  0
  5  6  1  0  0  0  0
  5  8  1  0  0  0  0
  6  7  1  0  0  0  0
  7  8  1  0  0  0  0
M  END
> <Index>
19926

> <PropertyFieldDistance>
nan

$$$$
13462430
BBcorina  12272117083D 1   1.00000     0.00000 
CORINA 4.3.0 0026  30.10.2019
 10 10  0  0  0  0  0  0  0  0999 V2000
  -33.8331    4.1688  -41.8836 N   0  0  0  0  0  0  0  0  0  0  0  0
  -34.8238    3.6549  -42.8388 C   0  0  0  0  0  0  0  0  0  0  0  0
  -34.1139    3.1638  -44.1124 C   0  0  0  0  0  0  0  0  0  0  0  0
  -34.8361    3.6604  -45.3467 C   0  0  0  0  0  0  0  0  0  0  0  0
  -36.1369    3.0103  -45.6944 C   0  0  0  0  0  0  0  0  0  0  0  0
  -37.2905    3.5263  -44.8768 C   0  0  0  0  0  0  0  0  0  0  0  0
  -37.4799    2.9729  -43.6972 C   0  0  0  0  0  0  0  0  0  0  0  0
  -36.5318    1.8833  -43.2637 C   0  0  0  0  0  0  0  0  0  0  0  0
  -35.5714    2.4479  -42.2192 C   0  0  0  0  0  0  0  0  0  0  0  0
  -34.5031    5.4061  -40.9119 X   0  0  0  0  0  0  0  0  0  0  0  0
  1  2  1  0  0  0  0
  1 10  1  0  0  0  0
  2  3  1  0  0  0  0
  2  9  1  0  0  0  0
  3  4  1  0  0  0  0
  4  5  1  0  0  0  0
  5  6  1  0  0  0  0
  6  7  2  0  0  0  0
  7  8  1  0  0  0  0
  8  9  1  0  0  0  0
M  END
> <Index>
19927

> <PropertyFieldDistance>
nan

$$$$
13460254
BBcorina  12272117083D 1   1.00000     0.00000 
CORINA 4.3.0 0026  30.10.2019
 10 10  0  0  0  0  0  0  0  0999 V2000
  -38.1494    6.3449  -46.8682 C   0  0  0  0  0  0  0  0  0  0  0  0
  -37.7957    5.2025  -46.0150 N   0  0  0  0  0  0  0  0  0  0  0  0
  -37.4015    5.6501  -44.6726 C   0  0  0  0  0  0  0  0  0  0  0  0
  -37.0413    4.4352  -43.8151 C   0  0  0  0  0  0  0  0  0  0  0  0
  -36.4463    4.8917  -42.4645 C   0  0  0  0  0  0  0  0  0  0  0  0
  -34.9300    4.8784  -42.7674 C   0  0  0  0  0  0  0  0  0  0  0  0
  -34.7865    3.8849  -43.8993 C   0  0  0  0  0  0  0  0  0  0  0  0
  -33.7431    3.3734  -44.2464 O   0  0  0  0  0  0  0  0  0  0  0  0
  -35.9837    3.6513  -44.4641 N   0  0  0  0  0  0  0  0  0  0  0  0
  -39.0811    4.0776  -45.9332 X   0  0  0  0  0  0  0  0  0  0  0  0
  1  2  1  0  0  0  0
  2  3  1  0  0  0  0
  2 10  1  0  0  0  0
  3  4  1  0  0  0  0
  4  5  1  0  0  0  0
  4  9  1  0  0  0  0
  5  6  1  0  0  0  0
  6  7  1  0  0  0  0
  7  8  2  0  0  0  0
  7  9  1  0  0  0  0
M  END
> <Index>
19928

> <PropertyFieldDistance>
nan

$$$$
17630668
BBcorina  12272117083D 1   1.00000     0.00000 
CORINA 4.3.0 0026  30.10.2019
 11 13  0  0  0  0  0  0  0  0999 V2000
  -35.8783    3.4075  -44.0031 N   0  0  0  0  0  0  0  0  0  0  0  0
  -36.8166    4.0651  -43.0618 C   0  0  0  0  0  0  0  0  0  0  0  0
  -36.4409    5.5788  -43.1018 C   0  0  0  0  0  0  0  0  0  0  0  0
  -35.9848    5.6979  -44.6001 C   0  0  0  0  0  0  0  0  0  0  0  0
  -34.9595    4.4893  -44.4887 C   0  0  0  0  0  0  0  0  0  0  0  0
  -34.1547    4.9290  -43.2266 C   0  0  0  0  0  0  0  0  0  0  0  0
  -35.1331    5.6497  -42.3769 N   0  0  0  0  0  0  0  0  0  0  0  0
  -35.2332    5.0305  -41.0485 C   0  0  0  0  0  0  0  0  0  0  0  0
  -33.9281    4.7342  -40.3070 C   0  0  0  0  0  0  0  0  0  0  0  0
  -34.8295    5.8794  -39.8412 C   0  0  0  0  0  0  0  0  0  0  0  0
  -34.9776    2.1850  -43.2166 X   0  0  0  0  0  0  0  0  0  0  0  0
  1  2  1  0  0  0  0
  1  5  1  0  0  0  0
  1 11  1  0  0  0  0
  2  3  1  0  0  0  0
  3  4  1  0  0  0  0
  3  7  1  0  0  0  0
  4  5  1  0  0  0  0
  5  6  1  0  0  0  0
  6  7  1  0  0  0  0
  7  8  1  0  0  0  0
  8  9  1  0  0  0  0
  8 10  1  0  0  0  0
  9 10  1  0  0  0  0
M  END
> <Index>
19938

> <PropertyFieldDistance>
nan

$$$$
13440030
BBcorina  12272117083D 1   1.00000     0.00000 
CORINA 4.3.0 0026  30.10.2019
 12 13  0  0  0  0  0  0  0  0999 V2000
  -37.9078    9.5118  -42.4485 F   0  0  0  0  0  0  0  0  0  0  0  0
  -37.3183    8.2564  -42.2646 C   0  0  0  0  0  0  0  0  0  0  0  0
  -36.7002    7.7853  -43.5825 C   0  0  0  0  0  0  0  0  0  0  0  0
  -36.0555    6.4124  -43.3815 C   0  0  0  0  0  0  0  0  0  0  0  0
  -37.1548    5.3789  -43.0495 C   0  0  0  0  0  0  0  0  0  0  0  0
  -36.5039    3.9874  -42.9933 C   0  0  0  0  0  0  0  0  0  0  0  0
  -35.2215    4.0842  -42.1351 C   0  0  0  0  0  0  0  0  0  0  0  0
  -34.1062    4.4612  -43.1323 C   0  0  0  0  0  0  0  0  0  0  0  0
  -34.8160    4.5580  -44.5024 C   0  0  0  0  0  0  0  0  0  0  0  0
  -35.3303    5.9974  -44.6648 C   0  0  0  0  0  0  0  0  0  0  0  0
  -36.0064    3.6780  -44.3602 N   0  0  0  0  0  0  0  0  0  0  0  0
  -35.5700    2.0302  -44.4951 X   0  0  0  0  0  0  0  0  0  0  0  0
  1  2  1  0  0  0  0
  2  3  1  0  0  0  0
  3  4  1  0  0  0  0
  4  5  1  0  0  0  0
  4 10  1  0  0  0  0
  5  6  1  0  0  0  0
  6  7  1  0  0  0  0
  6 11  1  0  0  0  0
  7  8  1  0  0  0  0
  8  9  1  0  0  0  0
  9 10  1  0  0  0  0
  9 11  1  0  0  0  0
 11 12  1  0  0  0  0
M  END
> <Index>
19946

> <PropertyFieldDistance>
nan

$$$$
17662734
BBcorina  12272117083D 1   1.00000     0.00000 
CORINA 4.3.0 0026  30.10.2019
 10 10  0  0  0  0  0  0  0  0999 V2000
  -34.8965    5.9704  -41.0361 N   0  0  0  0  0  0  0  0  0  0  0  0
  -35.2456    4.9366  -42.0198 C   0  0  0  0  0  0  0  0  0  0  0  0
  -36.6620    5.1867  -42.5483 C   0  0  0  0  0  0  0  0  0  0  0  0
  -36.9662    4.1916  -43.6370 C   0  0  0  0  0  0  0  0  0  0  0  0
  -38.1130    3.8447  -43.8217 O   0  0  0  0  0  0  0  0  0  0  0  0
  -35.9927    3.6811  -44.4058 N   0  0  0  0  0  0  0  0  0  0  0  0
  -34.7017    4.0111  -44.2509 C   0  0  0  0  0  0  0  0  0  0  0  0
  -33.8686    3.5065  -44.9725 O   0  0  0  0  0  0  0  0  0  0  0  0
  -34.2647    4.9932  -43.1957 C   0  0  0  0  0  0  0  0  0  0  0  0
  -35.0653    7.5350  -41.7054 X   0  0  0  0  0  0  0  0  0  0  0  0
  1  2  1  0  0  0  0
  1 10  1  0  0  0  0
  2  3  1  0  0  0  0
  2  9  1  0  0  0  0
  3  4  1  0  0  0  0
  4  5  2  0  0  0  0
  4  6  1  0  0  0  0
  6  7  1  0  0  0  0
  7  8  2  0  0  0  0
  7  9  1  0  0  0  0
M  END
> <Index>
19948

> <PropertyFieldDistance>
nan

$$$$
15065926
BBcorina  12272117083D 1   1.00000     0.00000 
CORINA 4.3.0 0026  30.10.2019
 10 10  0  0  0  0  0  0  0  0999 V2000
  -36.3198    2.2806  -44.8927 C   0  0  0  0  0  0  0  0  0  0  0  0
  -36.0751    3.6563  -44.4392 N   0  0  0  0  0  0  0  0  0  0  0  0
  -37.0865    4.0733  -43.4345 C   0  0  0  0  0  0  0  0  0  0  0  0
  -36.3989    5.2611  -42.7100 C   0  0  0  0  0  0  0  0  0  0  0  0
  -34.9210    4.8121  -42.6428 C   0  0  0  0  0  0  0  0  0  0  0  0
  -34.0295    5.9544  -42.8847 N   0  0  0  0  0  0  0  0  0  0  0  0
  -34.7649    3.7659  -43.7619 C   0  0  0  0  0  0  0  0  0  0  0  0
  -33.6993    4.2247  -44.7594 C   0  0  0  0  0  0  0  0  0  0  0  0
  -34.3693    2.4155  -43.1614 C   0  0  0  0  0  0  0  0  0  0  0  0
  -34.5251    6.8373  -44.2627 X   0  0  0  0  0  0  0  0  0  0  0  0
  1  2  1  0  0  0  0
  2  3  1  0  0  0  0
  2  7  1  0  0  0  0
  3  4  1  0  0  0  0
  4  5  1  0  0  0  0
  5  6  1  0  0  0  0
  5  7  1  0  0  0  0
  6 10  1  0  0  0  0
  7  8  1  0  0  0  0
  7  9  1  0  0  0  0
M  END
> <Index>
19949

> <PropertyFieldDistance>
nan

$$$$
17604300
BBcorina  12272117083D 1   1.00000     0.00000 
CORINA 4.3.0 0026  30.10.2019
 10 10  0  0  0  0  0  0  0  0999 V2000
  -37.5620    6.2848  -42.1915 C   0  0  0  0  0  0  0  0  0  0  0  0
  -36.6721    5.0655  -42.4410 C   0  0  0  0  0  0  0  0  0  0  0  0
  -36.9614    4.0006  -41.3811 C   0  0  0  0  0  0  0  0  0  0  0  0
  -36.9705    4.4946  -43.8286 C   0  0  0  0  0  0  0  0  0  0  0  0
  -35.9589    3.4743  -44.1476 N   0  0  0  0  0  0  0  0  0  0  0  0
  -34.6488    4.1065  -44.3528 C   0  0  0  0  0  0  0  0  0  0  0  0
  -34.3373    5.0223  -43.2030 C   0  0  0  0  0  0  0  0  0  0  0  0
  -33.1898    5.3786  -43.0385 O   0  0  0  0  0  0  0  0  0  0  0  0
  -35.2700    5.4633  -42.3546 N   0  0  0  0  0  0  0  0  0  0  0  0
  -36.4201    2.5613  -45.5178 X   0  0  0  0  0  0  0  0  0  0  0  0
  1  2  1  0  0  0  0
  2  3  1  0  0  0  0
  2  4  1  0  0  0  0
  2  9  1  0  0  0  0
  4  5  1  0  0  0  0
  5  6  1  0  0  0  0
  5 10  1  0  0  0  0
  6  7  1  0  0  0  0
  7  8  2  0  0  0  0
  7  9  1  0  0  0  0
M  END
> <Index>
19950

> <PropertyFieldDistance>
nan

$$$$
15705916
BBcorina  12272117083D 1   1.00000     0.00000 
CORINA 4.3.0 0026  30.10.2019
 11 12  0  0  0  0  0  0  0  0999 V2000
  -37.3112    4.9741  -41.4098 O   0  0  0  0  0  0  0  0  0  0  0  0
  -36.4691    4.8856  -42.5609 C   0  0  0  0  0  0  0  0  0  0  0  0
  -37.1916    4.4243  -43.8345 C   0  0  0  0  0  0  0  0  0  0  0  0
  -36.0021    3.6119  -44.1509 N   0  0  0  0  0  0  0  0  0  0  0  0
  -35.7297    3.5478  -42.7028 C   0  0  0  0  0  0  0  0  0  0  0  0
  -36.3883    2.2941  -44.6727 C   0  0  0  0  0  0  0  0  0  0  0  0
  -35.1381    1.4711  -45.0596 C   0  0  0  0  0  0  0  0  0  0  0  0
  -35.5218    0.7449  -46.3622 C   0  0  0  0  0  0  0  0  0  0  0  0
  -36.9200    1.1163  -46.6702 N   0  0  0  0  0  0  0  0  0  0  0  0
  -37.1420    2.4328  -46.0192 C   0  0  0  0  0  0  0  0  0  0  0  0
  -37.1692    1.2178  -48.3589 X   0  0  0  0  0  0  0  0  0  0  0  0
  1  2  1  0  0  0  0
  2  3  1  0  0  0  0
  2  5  1  0  0  0  0
  3  4  1  0  0  0  0
  4  5  1  0  0  0  0
  4  6  1  0  0  0  0
  6  7  1  0  0  0  0
  6 10  1  0  0  0  0
  7  8  1  0  0  0  0
  8  9  1  0  0  0  0
  9 10  1  0  0  0  0
  9 11  1  0  0  0  0
M  END
> <Index>
19952

> <PropertyFieldDistance>
nan

$$$$
15608430
BBcorina  12272117083D 1   1.00000     0.00000 
CORINA 4.3.0 0026  30.10.2019
  9 10  0  0  0  0  0  0  0  0999 V2000
  -37.6842    4.8621  -41.4928 N   0  0  0  0  0  0  0  0  0  0  0  0
  -36.6390    5.0891  -42.4997 C   0  0  0  0  0  0  0  0  0  0  0  0
  -37.0202    4.4223  -43.8421 C   0  0  0  0  0  0  0  0  0  0  0  0
  -35.9384    3.4258  -44.1109 N   0  0  0  0  0  0  0  0  0  0  0  0
  -34.7239    4.2239  -44.4630 C   0  0  0  0  0  0  0  0  0  0  0  0
  -34.2658    4.9025  -43.1221 C   0  0  0  0  0  0  0  0  0  0  0  0
  -35.3163    4.3590  -42.1012 C   0  0  0  0  0  0  0  0  0  0  0  0
  -35.6062    2.9447  -42.7220 C   0  0  0  0  0  0  0  0  0  0  0  0
  -38.0518    3.1977  -41.3554 X   0  0  0  0  0  0  0  0  0  0  0  0
  1  2  1  0  0  0  0
  1  9  1  0  0  0  0
  2  3  1  0  0  0  0
  2  7  1  0  0  0  0
  3  4  1  0  0  0  0
  4  5  1  0  0  0  0
  4  8  1  0  0  0  0
  5  6  1  0  0  0  0
  6  7  1  0  0  0  0
  7  8  1  0  0  0  0
M  END
> <Index>
19968

> <PropertyFieldDistance>
nan

$$$$
17662828
BBcorina  12272117083D 1   1.00000     0.00000 
CORINA 4.3.0 0026  30.10.2019
 10 11  0  0  0  0  0  0  0  0999 V2000
  -36.0648    3.2602  -45.3676 C   0  0  0  0  0  0  0  0  0  0  0  0
  -36.0715    3.1750  -43.9010 N   0  0  0  0  0  0  0  0  0  0  0  0
  -37.0980    4.0703  -43.3244 C   0  0  0  0  0  0  0  0  0  0  0  0
  -36.4439    5.0307  -42.3276 C   0  0  0  0  0  0  0  0  0  0  0  0
  -35.7810    4.2195  -41.2038 C   0  0  0  0  0  0  0  0  0  0  0  0
  -34.7644    3.2606  -41.8339 C   0  0  0  0  0  0  0  0  0  0  0  0
  -34.7458    3.4885  -43.3493 C   0  0  0  0  0  0  0  0  0  0  0  0
  -34.4035    4.9536  -43.6325 C   0  0  0  0  0  0  0  0  0  0  0  0
  -35.4174    5.8221  -43.0204 N   0  0  0  0  0  0  0  0  0  0  0  0
  -36.1233    6.8555  -44.1858 X   0  0  0  0  0  0  0  0  0  0  0  0
  1  2  1  0  0  0  0
  2  3  1  0  0  0  0
  2  7  1  0  0  0  0
  3  4  1  0  0  0  0
  4  5  1  0  0  0  0
  4  9  1  0  0  0  0
  5  6  1  0  0  0  0
  6  7  1  0  0  0  0
  7  8  1  0  0  0  0
  8  9  1  0  0  0  0
  9 10  1  0  0  0  0
M  END
> <Index>
19973

> <PropertyFieldDistance>
nan

$$$$
10684454
BBcorina  12272117083D 1   1.00000     0.00000 
CORINA 4.3.0 0026  30.10.2019
  9 10  0  0  0  0  0  0  0  0999 V2000
  -35.9531    3.5316  -44.2673 N   0  0  0  0  0  0  0  0  0  0  0  0
  -37.0246    4.3817  -43.7302 C   0  0  0  0  0  0  0  0  0  0  0  0
  -36.5924    5.0038  -42.4005 C   0  0  0  0  0  0  0  0  0  0  0  0
  -35.3097    5.7134  -42.5978 N   0  0  0  0  0  0  0  0  0  0  0  0
  -35.4262    6.5656  -43.8066 C   0  0  0  0  0  0  0  0  0  0  0  0
  -35.0610    5.6743  -45.0093 C   0  0  0  0  0  0  0  0  0  0  0  0
  -34.6970    4.3022  -44.3878 C   0  0  0  0  0  0  0  0  0  0  0  0
  -34.2807    4.6938  -42.9439 C   0  0  0  0  0  0  0  0  0  0  0  0
  -36.4037    2.8550  -45.7717 X   0  0  0  0  0  0  0  0  0  0  0  0
  1  2  1  0  0  0  0
  1  7  1  0  0  0  0
  1  9  1  0  0  0  0
  2  3  1  0  0  0  0
  3  4  1  0  0  0  0
  4  5  1  0  0  0  0
  4  8  1  0  0  0  0
  5  6  1  0  0  0  0
  6  7  1  0  0  0  0
  7  8  1  0  0  0  0
M  END
> <Index>
19974

> <PropertyFieldDistance>
nan

$$$$
13774624
BBcorina  12272117083D 1   1.00000     0.00000 
CORINA 4.3.0 0026  30.10.2019
  8  8  0  0  0  0  0  0  0  0999 V2000
  -36.0193    3.6352  -44.4116 N   0  0  0  0  0  0  0  0  0  0  0  0
  -37.0566    4.4952  -43.7924 C   0  0  0  0  0  0  0  0  0  0  0  0
  -36.5879    4.9114  -42.4195 C   0  0  0  0  0  0  0  0  0  0  0  0
  -35.8697    6.1593  -42.4268 O   0  0  0  0  0  0  0  0  0  0  0  0
  -34.9472    6.3463  -43.5121 C   0  0  0  0  0  0  0  0  0  0  0  0
  -34.1706    5.0900  -43.8239 C   0  0  0  0  0  0  0  0  0  0  0  0
  -34.8883    4.3585  -44.8324 O   0  0  0  0  0  0  0  0  0  0  0  0
  -36.6724    2.7165  -45.6976 X   0  0  0  0  0  0  0  0  0  0  0  0
  1  2  1  0  0  0  0
  1  7  1  0  0  0  0
  1  8  1  0  0  0  0
  2  3  1  0  0  0  0
  3  4  1  0  0  0  0
  4  5  1  0  0  0  0
  5  6  1  0  0  0  0
  6  7  1  0  0  0  0
M  END
> <Index>
20006

> <PropertyFieldDistance>
nan

$$$$
13565850
BBcorina  12272117083D 1   1.00000     0.00000 
CORINA 4.3.0 0026  30.10.2019
 11 12  0  0  0  0  0  0  0  0999 V2000
  -31.9049    5.3920  -43.3879 N   0  0  0  0  0  0  0  0  0  0  0  0
  -33.1544    5.5270  -42.8117 C   0  0  0  0  0  0  0  0  0  0  0  0
  -33.4694    6.2375  -41.7097 O   0  0  0  0  0  0  0  0  0  0  0  0
  -34.6553    6.1611  -41.4526 N   0  0  0  0  0  0  0  0  0  0  0  0
  -35.2782    5.4226  -42.3081 C   0  0  0  0  0  0  0  0  0  0  0  0
  -36.7315    5.0383  -42.4152 C   0  0  0  0  0  0  0  0  0  0  0  0
  -36.9633    4.4935  -43.8328 C   0  0  0  0  0  0  0  0  0  0  0  0
  -35.9537    3.4775  -44.1559 N   0  0  0  0  0  0  0  0  0  0  0  0
  -34.6288    4.0796  -44.3978 C   0  0  0  0  0  0  0  0  0  0  0  0
  -34.3100    4.9747  -43.2359 C   0  0  0  0  0  0  0  0  0  0  0  0
  -36.4467    2.5256  -45.4882 X   0  0  0  0  0  0  0  0  0  0  0  0
  1  2  1  0  0  0  0
  2  3  1  0  0  0  0
  2 10  2  0  0  0  0
  3  4  1  0  0  0  0
  4  5  2  0  0  0  0
  5  6  1  0  0  0  0
  5 10  1  0  0  0  0
  6  7  1  0  0  0  0
  7  8  1  0  0  0  0
  8  9  1  0  0  0  0
  8 11  1  0  0  0  0
  9 10  1  0  0  0  0
M  END
> <Index>
20009

> <PropertyFieldDistance>
nan

$$$$
13755974
BBcorina  12272117083D 1   1.00000     0.00000 
CORINA 4.3.0 0026  30.10.2019
  9  9  0  0  0  0  0  0  0  0999 V2000
  -34.3793    7.9606  -41.5769 C   0  0  0  0  0  0  0  0  0  0  0  0
  -35.0788    6.6062  -41.4460 C   0  0  0  0  0  0  0  0  0  0  0  0
  -35.6820    6.2401  -42.7344 N   0  0  0  0  0  0  0  0  0  0  0  0
  -36.3642    4.9420  -42.6464 C   0  0  0  0  0  0  0  0  0  0  0  0
  -37.0845    4.5315  -43.9435 C   0  0  0  0  0  0  0  0  0  0  0  0
  -36.5502    3.1745  -43.6936 N   0  0  0  0  0  0  0  0  0  0  0  0
  -36.0523    2.5679  -44.9355 C   0  0  0  0  0  0  0  0  0  0  0  0
  -35.4379    3.7374  -42.8924 C   0  0  0  0  0  0  0  0  0  0  0  0
  -36.7512    7.4585  -43.2788 X   0  0  0  0  0  0  0  0  0  0  0  0
  1  2  1  0  0  0  0
  2  3  1  0  0  0  0
  3  4  1  0  0  0  0
  3  9  1  0  0  0  0
  4  5  1  0  0  0  0
  4  8  1  0  0  0  0
  5  6  1  0  0  0  0
  6  7  1  0  0  0  0
  6  8  1  0  0  0  0
M  END
> <Index>
20026

> <PropertyFieldDistance>
nan

$$$$
13762532
BBcorina  12272117083D 1   1.00000     0.00000 
CORINA 4.3.0 0026  30.10.2019
 13 14  0  0  0  0  0  0  0  0999 V2000
  -33.9760    9.0854  -38.6055 C   0  0  0  0  0  0  0  0  0  0  0  0
  -34.3600    8.1696  -39.7390 C   0  0  0  0  0  0  0  0  0  0  0  0
  -34.6484    8.5405  -40.9449 N   0  0  0  0  0  0  0  0  0  0  0  0
  -34.9472    7.6224  -41.7606 N   0  0  0  0  0  0  0  0  0  0  0  0
  -34.9316    6.4133  -41.2993 C   0  0  0  0  0  0  0  0  0  0  0  0
  -34.4868    6.4647  -39.6467 S   0  0  0  0  0  0  0  0  0  0  0  0
  -35.2461    5.1676  -42.0870 C   0  0  0  0  0  0  0  0  0  0  0  0
  -36.6793    5.2476  -42.6202 C   0  0  0  0  0  0  0  0  0  0  0  0
  -36.9723    4.0086  -43.4694 C   0  0  0  0  0  0  0  0  0  0  0  0
  -36.0191    3.9414  -44.5845 N   0  0  0  0  0  0  0  0  0  0  0  0
  -34.6396    3.8164  -44.0970 C   0  0  0  0  0  0  0  0  0  0  0  0
  -34.2769    5.0495  -43.2665 C   0  0  0  0  0  0  0  0  0  0  0  0
  -36.4110    2.6621  -45.6494 X   0  0  0  0  0  0  0  0  0  0  0  0
  1  2  1  0  0  0  0
  2  3  2  0  0  0  0
  2  6  1  0  0  0  0
  3  4  1  0  0  0  0
  4  5  2  0  0  0  0
  5  6  1  0  0  0  0
  5  7  1  0  0  0  0
  7  8  1  0  0  0  0
  7 12  1  0  0  0  0
  8  9  1  0  0  0  0
  9 10  1  0  0  0  0
 10 11  1  0  0  0  0
 10 13  1  0  0  0  0
 11 12  1  0  0  0  0
M  END
> <Index>
20028

> <PropertyFieldDistance>
nan

$$$$
13755976
BBcorina  12272117083D 1   1.00000     0.00000 
CORINA 4.3.0 0026  30.10.2019
 14 15  0  0  0  0  0  0  0  0999 V2000
  -34.6827    3.4417  -47.2967 C   0  0  0  0  0  0  0  0  0  0  0  0
  -34.7164    2.1169  -46.6723 N   0  0  0  0  0  0  0  0  0  0  0  0
  -33.8605    1.0468  -46.9632 N   0  0  0  0  0  0  0  0  0  0  0  0
  -34.2017    0.0337  -46.2088 C   0  0  0  0  0  0  0  0  0  0  0  0
  -35.2808    0.4273  -45.4107 C   0  0  0  0  0  0  0  0  0  0  0  0
  -35.5753    1.7129  -45.7132 C   0  0  0  0  0  0  0  0  0  0  0  0
  -36.6706    2.5427  -45.0944 C   0  0  0  0  0  0  0  0  0  0  0  0
  -36.1182    3.3364  -43.9885 N   0  0  0  0  0  0  0  0  0  0  0  0
  -37.0926    4.3292  -43.5148 C   0  0  0  0  0  0  0  0  0  0  0  0
  -36.5103    5.0792  -42.3143 C   0  0  0  0  0  0  0  0  0  0  0  0
  -35.2517    5.7273  -42.7086 N   0  0  0  0  0  0  0  0  0  0  0  0
  -34.2773    4.7344  -43.1823 C   0  0  0  0  0  0  0  0  0  0  0  0
  -34.8596    3.9845  -44.3827 C   0  0  0  0  0  0  0  0  0  0  0  0
  -34.6087    6.6511  -41.4212 X   0  0  0  0  0  0  0  0  0  0  0  0
  1  2  1  0  0  0  0
  2  3  1  0  0  0  0
  2  6  1  0  0  0  0
  3  4  2  0  0  0  0
  4  5  1  0  0  0  0
  5  6  2  0  0  0  0
  6  7  1  0  0  0  0
  7  8  1  0  0  0  0
  8  9  1  0  0  0  0
  8 13  1  0  0  0  0
  9 10  1  0  0  0  0
 10 11  1  0  0  0  0
 11 12  1  0  0  0  0
 11 14  1  0  0  0  0
 12 13  1  0  0  0  0
M  END
> <Index>
20029

> <PropertyFieldDistance>
nan

$$$$
15142210
BBcorina  12272117083D 1   1.00000     0.00000 
CORINA 4.3.0 0026  30.10.2019
 10 11  0  0  0  0  0  0  0  0999 V2000
  -36.6577    7.6947  -43.5692 O   0  0  0  0  0  0  0  0  0  0  0  0
  -36.0555    6.4124  -43.3815 C   0  0  0  0  0  0  0  0  0  0  0  0
  -37.1548    5.3789  -43.0495 C   0  0  0  0  0  0  0  0  0  0  0  0
  -36.5039    3.9874  -42.9933 C   0  0  0  0  0  0  0  0  0  0  0  0
  -35.2215    4.0842  -42.1351 C   0  0  0  0  0  0  0  0  0  0  0  0
  -34.1062    4.4612  -43.1323 C   0  0  0  0  0  0  0  0  0  0  0  0
  -34.8160    4.5580  -44.5024 C   0  0  0  0  0  0  0  0  0  0  0  0
  -35.3303    5.9974  -44.6648 C   0  0  0  0  0  0  0  0  0  0  0  0
  -36.0064    3.6780  -44.3602 N   0  0  0  0  0  0  0  0  0  0  0  0
  -35.5700    2.0302  -44.4951 X   0  0  0  0  0  0  0  0  0  0  0  0
  1  2  1  0  0  0  0
  2  3  1  0  0  0  0
  2  8  1  0  0  0  0
  3  4  1  0  0  0  0
  4  5  1  0  0  0  0
  4  9  1  0  0  0  0
  5  6  1  0  0  0  0
  6  7  1  0  0  0  0
  7  8  1  0  0  0  0
  7  9  1  0  0  0  0
  9 10  1  0  0  0  0
M  END
> <Index>
20034

> <PropertyFieldDistance>
nan

$$$$
14050762
BBcorina  12272117083D 1   1.00000     0.00000 
CORINA 4.3.0 0026  30.10.2019
 14 15  0  0  0  0  0  0  0  0999 V2000
  -36.9003    2.5108  -48.6976 C   0  0  0  0  0  0  0  0  0  0  0  0
  -36.7048    2.2584  -47.2678 N   0  0  0  0  0  0  0  0  0  0  0  0
  -36.4406    3.1951  -46.3182 C   0  0  0  0  0  0  0  0  0  0  0  0
  -36.3284    2.5515  -45.1287 C   0  0  0  0  0  0  0  0  0  0  0  0
  -36.5382    1.1842  -45.3578 C   0  0  0  0  0  0  0  0  0  0  0  0
  -36.7630    1.0100  -46.6352 N   0  0  0  0  0  0  0  0  0  0  0  0
  -36.0557    3.1513  -43.8843 N   0  0  0  0  0  0  0  0  0  0  0  0
  -37.0933    4.1463  -43.5368 C   0  0  0  0  0  0  0  0  0  0  0  0
  -36.3951    5.2840  -42.7689 C   0  0  0  0  0  0  0  0  0  0  0  0
  -34.9015    4.8872  -42.7293 C   0  0  0  0  0  0  0  0  0  0  0  0
  -34.7725    3.9041  -43.9198 C   0  0  0  0  0  0  0  0  0  0  0  0
  -33.5860    2.9601  -43.7145 C   0  0  0  0  0  0  0  0  0  0  0  0
  -33.5795    1.9439  -44.7754 N   0  0  0  0  0  0  0  0  0  0  0  0
  -32.2661    0.8659  -44.5831 X   0  0  0  0  0  0  0  0  0  0  0  0
  1  2  1  0  0  0  0
  2  3  1  0  0  0  0
  2  6  1  0  0  0  0
  3  4  2  0  0  0  0
  4  5  1  0  0  0  0
  4  7  1  0  0  0  0
  5  6  2  0  0  0  0
  7  8  1  0  0  0  0
  7 11  1  0  0  0  0
  8  9  1  0  0  0  0
  9 10  1  0  0  0  0
 10 11  1  0  0  0  0
 11 12  1  0  0  0  0
 12 13  1  0  0  0  0
 13 14  1  0  0  0  0
M  END
> <Index>
20049

> <PropertyFieldDistance>
nan

$$$$
13905924
BBcorina  12272117083D 1   1.00000     0.00000 
CORINA 4.3.0 0026  30.10.2019
 13 14  0  0  0  0  0  0  0  0999 V2000
  -35.1137    4.0235  -41.2426 O   0  0  0  0  0  0  0  0  0  0  0  0
  -35.2463    5.1683  -42.0875 C   0  0  0  0  0  0  0  0  0  0  0  0
  -36.6796    5.2477  -42.6204 C   0  0  0  0  0  0  0  0  0  0  0  0
  -36.9723    4.0084  -43.4693 C   0  0  0  0  0  0  0  0  0  0  0  0
  -36.0193    3.9412  -44.5845 N   0  0  0  0  0  0  0  0  0  0  0  0
  -34.6397    3.8168  -44.0973 C   0  0  0  0  0  0  0  0  0  0  0  0
  -34.2763    5.0495  -43.2662 C   0  0  0  0  0  0  0  0  0  0  0  0
  -34.9273    6.4334  -41.2883 C   0  0  0  0  0  0  0  0  0  0  0  0
  -33.4778    6.3932  -40.7319 C   0  0  0  0  0  0  0  0  0  0  0  0
  -33.5893    7.2664  -39.4637 C   0  0  0  0  0  0  0  0  0  0  0  0
  -34.9687    7.2998  -39.0789 O   0  0  0  0  0  0  0  0  0  0  0  0
  -35.7455    6.4845  -39.9735 C   0  0  0  0  0  0  0  0  0  0  0  0
  -36.4111    2.6615  -45.6490 X   0  0  0  0  0  0  0  0  0  0  0  0
  1  2  1  0  0  0  0
  2  3  1  0  0  0  0
  2  7  1  0  0  0  0
  2  8  1  0  0  0  0
  3  4  1  0  0  0  0
  4  5  1  0  0  0  0
  5  6  1  0  0  0  0
  5 13  1  0  0  0  0
  6  7  1  0  0  0  0
  8  9  1  0  0  0  0
  8 12  1  0  0  0  0
  9 10  1  0  0  0  0
 10 11  1  0  0  0  0
 11 12  1  0  0  0  0
M  END
> <Index>
20054

> <PropertyFieldDistance>
nan

$$$$
15101146
BBcorina  12272117083D 1   1.00000     0.00000 
CORINA 4.3.0 0026  30.10.2019
 11 12  0  0  0  0  0  0  0  0999 V2000
  -34.2753    0.8534  -41.6481 N   0  0  0  0  0  0  0  0  0  0  0  0
  -35.0592    1.3755  -42.7754 C   0  0  0  0  0  0  0  0  0  0  0  0
  -36.5246    1.6419  -42.3482 C   0  0  0  0  0  0  0  0  0  0  0  0
  -37.0235    2.7075  -43.3486 C   0  0  0  0  0  0  0  0  0  0  0  0
  -35.7751    3.4265  -43.8711 C   0  0  0  0  0  0  0  0  0  0  0  0
  -35.6679    3.2940  -45.3940 C   0  0  0  0  0  0  0  0  0  0  0  0
  -35.6760    4.7321  -45.9571 C   0  0  0  0  0  0  0  0  0  0  0  0
  -35.1826    5.6057  -44.7763 C   0  0  0  0  0  0  0  0  0  0  0  0
  -35.8404    4.9269  -43.5474 C   0  0  0  0  0  0  0  0  0  0  0  0
  -34.5556    2.7821  -43.1896 C   0  0  0  0  0  0  0  0  0  0  0  0
  -34.2521   -0.8564  -41.6575 X   0  0  0  0  0  0  0  0  0  0  0  0
  1  2  1  0  0  0  0
  1 11  1  0  0  0  0
  2  3  1  0  0  0  0
  2 10  1  0  0  0  0
  3  4  1  0  0  0  0
  4  5  1  0  0  0  0
  5  6  1  0  0  0  0
  5  9  1  0  0  0  0
  5 10  1  0  0  0  0
  6  7  1  0  0  0  0
  7  8  1  0  0  0  0
  8  9  1  0  0  0  0
M  END
> <Index>
20059

> <PropertyFieldDistance>
nan

$$$$
3312520
BBcorina  12272117083D 1   1.00000     0.00000 
CORINA 4.3.0 0026  30.10.2019
 15 16  0  0  0  0  0  0  0  0999 V2000
  -37.0714   -1.5889  -46.6117 C   0  0  0  0  0  0  0  0  0  0  0  0
  -36.6651   -0.5118  -45.6038 C   0  0  0  0  0  0  0  0  0  0  0  0
  -35.5370    0.3379  -46.1923 C   0  0  0  0  0  0  0  0  0  0  0  0
  -35.1309    1.4150  -45.1844 C   0  0  0  0  0  0  0  0  0  0  0  0
  -36.3354    2.3075  -44.8786 C   0  0  0  0  0  0  0  0  0  0  0  0
  -37.4635    1.4578  -44.2902 C   0  0  0  0  0  0  0  0  0  0  0  0
  -37.8696    0.3808  -45.2981 C   0  0  0  0  0  0  0  0  0  0  0  0
  -35.9454    3.3417  -43.9110 N   0  0  0  0  0  0  0  0  0  0  0  0
  -37.0433    4.2897  -43.6828 C   0  0  0  0  0  0  0  0  0  0  0  0
  -36.6552    5.2624  -42.5668 C   0  0  0  0  0  0  0  0  0  0  0  0
  -35.3835    6.0134  -42.9700 C   0  0  0  0  0  0  0  0  0  0  0  0
  -34.2692    5.0008  -43.2488 C   0  0  0  0  0  0  0  0  0  0  0  0
  -34.7262    4.0356  -44.3451 C   0  0  0  0  0  0  0  0  0  0  0  0
  -34.9734    6.9062  -41.8779 N   0  0  0  0  0  0  0  0  0  0  0  0
  -34.5609    6.0137  -40.4788 X   0  0  0  0  0  0  0  0  0  0  0  0
  1  2  1  0  0  0  0
  2  3  1  0  0  0  0
  2  7  1  0  0  0  0
  3  4  1  0  0  0  0
  4  5  1  0  0  0  0
  5  6  1  0  0  0  0
  5  8  1  0  0  0  0
  6  7  1  0  0  0  0
  8  9  1  0  0  0  0
  8 13  1  0  0  0  0
  9 10  1  0  0  0  0
 10 11  1  0  0  0  0
 11 12  1  0  0  0  0
 11 14  1  0  0  0  0
 12 13  1  0  0  0  0
 14 15  1  0  0  0  0
M  END
> <Index>
20073

> <PropertyFieldDistance>
nan

$$$$
3490378
BBcorina  12272117083D 1   1.00000     0.00000 
CORINA 4.3.0 0026  30.10.2019
 12 12  0  0  0  0  0  0  0  0999 V2000
  -36.7354    0.7106  -43.9848 C   0  0  0  0  0  0  0  0  0  0  0  0
  -36.9680    1.5671  -45.2312 C   0  0  0  0  0  0  0  0  0  0  0  0
  -37.0444    0.6994  -46.4141 N   0  0  0  0  0  0  0  0  0  0  0  0
  -35.8097    2.5530  -45.3959 C   0  0  0  0  0  0  0  0  0  0  0  0
  -36.0790    3.4598  -46.5984 C   0  0  0  0  0  0  0  0  0  0  0  0
  -35.6876    3.3720  -44.1826 N   0  0  0  0  0  0  0  0  0  0  0  0
  -36.9197    4.1352  -43.9358 C   0  0  0  0  0  0  0  0  0  0  0  0
  -36.7713    4.9263  -42.6335 C   0  0  0  0  0  0  0  0  0  0  0  0
  -35.6203    5.7705  -42.7229 O   0  0  0  0  0  0  0  0  0  0  0  0
  -34.4024    5.0600  -42.9623 C   0  0  0  0  0  0  0  0  0  0  0  0
  -34.5268    4.2702  -44.2678 C   0  0  0  0  0  0  0  0  0  0  0  0
  -35.5959   -0.1858  -46.6196 X   0  0  0  0  0  0  0  0  0  0  0  0
  1  2  1  0  0  0  0
  2  3  1  0  0  0  0
  2  4  1  0  0  0  0
  3 12  1  0  0  0  0
  4  5  1  0  0  0  0
  4  6  1  0  0  0  0
  6  7  1  0  0  0  0
  6 11  1  0  0  0  0
  7  8  1  0  0  0  0
  8  9  1  0  0  0  0
  9 10  1  0  0  0  0
 10 11  1  0  0  0  0
M  END
> <Index>
20075

> <PropertyFieldDistance>
nan

$$$$
3935904
BBcorina  12272117083D 1   1.00000     0.00000 
CORINA 4.3.0 0026  30.10.2019
 12 12  0  0  0  0  0  0  0  0999 V2000
  -36.4870   -1.0280  -45.5855 N   0  0  0  0  0  0  0  0  0  0  0  0
  -36.5251    0.3391  -46.1217 C   0  0  0  0  0  0  0  0  0  0  0  0
  -36.2208    1.3352  -45.0009 C   0  0  0  0  0  0  0  0  0  0  0  0
  -36.2605    2.7591  -45.5593 C   0  0  0  0  0  0  0  0  0  0  0  0
  -35.9692    3.7127  -44.4861 N   0  0  0  0  0  0  0  0  0  0  0  0
  -37.0894    4.2351  -43.7137 C   0  0  0  0  0  0  0  0  0  0  0  0
  -36.5976    4.8089  -42.3821 C   0  0  0  0  0  0  0  0  0  0  0  0
  -35.4473    5.7823  -42.6663 C   0  0  0  0  0  0  0  0  0  0  0  0
  -34.2519    4.9801  -43.1862 C   0  0  0  0  0  0  0  0  0  0  0  0
  -34.6961    4.0527  -44.2807 C   0  0  0  0  0  0  0  0  0  0  0  0
  -33.8520    3.5883  -45.0174 O   0  0  0  0  0  0  0  0  0  0  0  0
  -36.8225   -2.1754  -46.8083 X   0  0  0  0  0  0  0  0  0  0  0  0
  1  2  1  0  0  0  0
  1 12  1  0  0  0  0
  2  3  1  0  0  0  0
  3  4  1  0  0  0  0
  4  5  1  0  0  0  0
  5  6  1  0  0  0  0
  5 10  1  0  0  0  0
  6  7  1  0  0  0  0
  7  8  1  0  0  0  0
  8  9  1  0  0  0  0
  9 10  1  0  0  0  0
 10 11  2  0  0  0  0
M  END
> <Index>
20076

> <PropertyFieldDistance>
nan

$$$$
3489420
BBcorina  12272117083D 1   1.00000     0.00000 
CORINA 4.3.0 0026  30.10.2019
 12 12  0  0  0  0  0  0  0  0999 V2000
  -36.9409    0.5851  -46.4356 C   0  0  0  0  0  0  0  0  0  0  0  0
  -36.8934    1.4968  -45.2078 C   0  0  0  0  0  0  0  0  0  0  0  0
  -35.8619    2.6038  -45.4343 C   0  0  0  0  0  0  0  0  0  0  0  0
  -35.7104    3.3912  -44.2034 N   0  0  0  0  0  0  0  0  0  0  0  0
  -36.9320    4.1561  -43.9135 C   0  0  0  0  0  0  0  0  0  0  0  0
  -36.7528    4.9132  -42.5950 C   0  0  0  0  0  0  0  0  0  0  0  0
  -35.5978    5.7516  -42.6856 O   0  0  0  0  0  0  0  0  0  0  0  0
  -34.3900    5.0393  -42.9664 C   0  0  0  0  0  0  0  0  0  0  0  0
  -34.5451    4.2835  -44.2887 C   0  0  0  0  0  0  0  0  0  0  0  0
  -33.2862    3.4556  -44.5548 C   0  0  0  0  0  0  0  0  0  0  0  0
  -38.2167    2.0971  -44.9922 N   0  0  0  0  0  0  0  0  0  0  0  0
  -38.7485    2.9261  -46.3901 X   0  0  0  0  0  0  0  0  0  0  0  0
  1  2  1  0  0  0  0
  2  3  1  0  0  0  0
  2 11  1  0  0  0  0
  3  4  1  0  0  0  0
  4  5  1  0  0  0  0
  4  9  1  0  0  0  0
  5  6  1  0  0  0  0
  6  7  1  0  0  0  0
  7  8  1  0  0  0  0
  8  9  1  0  0  0  0
  9 10  1  0  0  0  0
 11 12  1  0  0  0  0
M  END
> <Index>
20085

> <PropertyFieldDistance>
nan

$$$$
3351078
BBcorina  12272117083D 1   1.00000     0.00000 
CORINA 4.3.0 0026  30.10.2019
  8  8  0  0  0  0  0  0  0  0999 V2000
  -36.0090    4.0169  -44.5497 N   0  0  0  0  0  0  0  0  0  0  0  0
  -36.9722    3.9696  -43.4472 C   0  0  0  0  0  0  0  0  0  0  0  0
  -36.8449    5.2338  -42.5902 C   0  0  0  0  0  0  0  0  0  0  0  0
  -35.1719    5.2824  -41.8778 S   0  0  0  0  0  0  0  0  0  0  0  0
  -34.9273    6.5711  -41.3311 O   0  0  0  0  0  0  0  0  0  0  0  0
  -34.1301    5.0403  -43.3491 C   0  0  0  0  0  0  0  0  0  0  0  0
  -34.6311    3.8029  -44.1016 C   0  0  0  0  0  0  0  0  0  0  0  0
  -36.4322    2.9085  -45.7810 X   0  0  0  0  0  0  0  0  0  0  0  0
  1  2  1  0  0  0  0
  1  7  1  0  0  0  0
  1  8  1  0  0  0  0
  2  3  1  0  0  0  0
  3  4  1  0  0  0  0
  4  5  2  0  0  0  0
  4  6  1  0  0  0  0
  6  7  1  0  0  0  0
M  END
> <Index>
20089

> <PropertyFieldDistance>
nan

$$$$
14054630
BBcorina  12272117083D 1   1.00000     0.00000 
CORINA 4.3.0 0026  30.10.2019
 12 13  0  0  0  0  0  0  0  0999 V2000
  -36.3506    3.6330  -40.6324 N   0  0  0  0  0  0  0  0  0  0  0  0
  -35.6683    3.1607  -41.8446 C   0  0  0  0  0  0  0  0  0  0  0  0
  -35.6529    1.6308  -41.8580 C   0  0  0  0  0  0  0  0  0  0  0  0
  -34.9364    1.1372  -43.1166 C   0  0  0  0  0  0  0  0  0  0  0  0
  -35.6770    1.6444  -44.3564 C   0  0  0  0  0  0  0  0  0  0  0  0
  -35.7102    3.1708  -44.3408 C   0  0  0  0  0  0  0  0  0  0  0  0
  -34.2798    3.7273  -44.4031 C   0  0  0  0  0  0  0  0  0  0  0  0
  -34.1926    4.5677  -45.6947 C   0  0  0  0  0  0  0  0  0  0  0  0
  -35.6609    4.9633  -45.9905 C   0  0  0  0  0  0  0  0  0  0  0  0
  -36.4468    3.6894  -45.5896 C   0  0  0  0  0  0  0  0  0  0  0  0
  -36.4109    3.6735  -43.0808 C   0  0  0  0  0  0  0  0  0  0  0  0
  -37.9633    3.0673  -40.5770 X   0  0  0  0  0  0  0  0  0  0  0  0
  1  2  1  0  0  0  0
  1 12  1  0  0  0  0
  2  3  1  0  0  0  0
  2 11  1  0  0  0  0
  3  4  1  0  0  0  0
  4  5  1  0  0  0  0
  5  6  1  0  0  0  0
  6  7  1  0  0  0  0
  6 10  1  0  0  0  0
  6 11  1  0  0  0  0
  7  8  1  0  0  0  0
  8  9  1  0  0  0  0
  9 10  1  0  0  0  0
M  END
> <Index>
20097

> <PropertyFieldDistance>
nan

$$$$
14577566
BBcorina  12272117083D 1   1.00000     0.00000 
CORINA 4.3.0 0026  30.10.2019
 12 13  0  0  0  0  0  0  0  0999 V2000
  -37.0474    1.6485  -45.3391 C   0  0  0  0  0  0  0  0  0  0  0  0
  -35.7543    2.4656  -45.3033 C   0  0  0  0  0  0  0  0  0  0  0  0
  -34.4857    1.6287  -45.5482 C   0  0  0  0  0  0  0  0  0  0  0  0
  -34.0266    2.7492  -46.3985 N   0  0  0  0  0  0  0  0  0  0  0  0
  -35.4284    3.1683  -46.6334 C   0  0  0  0  0  0  0  0  0  0  0  0
  -35.6651    3.3450  -44.1300 N   0  0  0  0  0  0  0  0  0  0  0  0
  -36.9053    4.1141  -43.9525 C   0  0  0  0  0  0  0  0  0  0  0  0
  -36.7920    4.9703  -42.6883 C   0  0  0  0  0  0  0  0  0  0  0  0
  -35.6418    5.8138  -42.7914 O   0  0  0  0  0  0  0  0  0  0  0  0
  -34.4161    5.0976  -42.9644 C   0  0  0  0  0  0  0  0  0  0  0  0
  -34.5054    4.2427  -44.2314 C   0  0  0  0  0  0  0  0  0  0  0  0
  -33.3080    2.1713  -47.8385 X   0  0  0  0  0  0  0  0  0  0  0  0
  1  2  1  0  0  0  0
  2  3  1  0  0  0  0
  2  5  1  0  0  0  0
  2  6  1  0  0  0  0
  3  4  1  0  0  0  0
  4  5  1  0  0  0  0
  4 12  1  0  0  0  0
  6  7  1  0  0  0  0
  6 11  1  0  0  0  0
  7  8  1  0  0  0  0
  8  9  1  0  0  0  0
  9 10  1  0  0  0  0
 10 11  1  0  0  0  0
M  END
> <Index>
20103

> <PropertyFieldDistance>
nan

$$$$
14470418
BBcorina  12272117083D 1   1.00000     0.00000 
CORINA 4.3.0 0026  30.10.2019
 11 11  0  0  0  0  0  0  0  0999 V2000
  -36.4728    4.0852  -41.3799 C   0  0  0  0  0  0  0  0  0  0  0  0
  -36.6587    5.1099  -42.5007 C   0  0  0  0  0  0  0  0  0  0  0  0
  -37.0290    4.3869  -43.7977 C   0  0  0  0  0  0  0  0  0  0  0  0
  -35.9479    3.4664  -44.1723 N   0  0  0  0  0  0  0  0  0  0  0  0
  -34.6959    4.1916  -44.4226 C   0  0  0  0  0  0  0  0  0  0  0  0
  -34.2559    4.9088  -43.1443 C   0  0  0  0  0  0  0  0  0  0  0  0
  -32.9625    5.6812  -43.4113 C   0  0  0  0  0  0  0  0  0  0  0  0
  -35.3534    5.8832  -42.7079 C   0  0  0  0  0  0  0  0  0  0  0  0
  -34.9807    6.5009  -41.5094 F   0  0  0  0  0  0  0  0  0  0  0  0
  -35.5374    6.8541  -43.6982 F   0  0  0  0  0  0  0  0  0  0  0  0
  -36.3900    2.5211  -45.5270 X   0  0  0  0  0  0  0  0  0  0  0  0
  1  2  1  0  0  0  0
  2  3  1  0  0  0  0
  2  8  1  0  0  0  0
  3  4  1  0  0  0  0
  4  5  1  0  0  0  0
  4 11  1  0  0  0  0
  5  6  1  0  0  0  0
  6  7  1  0  0  0  0
  6  8  1  0  0  0  0
  8  9  1  0  0  0  0
  8 10  1  0  0  0  0
M  END
> <Index>
20104

> <PropertyFieldDistance>
nan

$$$$
14468630
BBcorina  12272117083D 1   1.00000     0.00000 
CORINA 4.3.0 0026  30.10.2019
 12 13  0  0  0  0  0  0  0  0999 V2000
  -36.0117    3.7534  -44.4457 N   0  0  0  0  0  0  0  0  0  0  0  0
  -36.9938    4.5934  -43.7472 C   0  0  0  0  0  0  0  0  0  0  0  0
  -36.6213    4.6827  -42.2634 C   0  0  0  0  0  0  0  0  0  0  0  0
  -35.2267    5.1383  -42.1585 N   0  0  0  0  0  0  0  0  0  0  0  0
  -34.2032    4.4330  -42.9448 C   0  0  0  0  0  0  0  0  0  0  0  0
  -34.6701    4.3498  -44.3972 C   0  0  0  0  0  0  0  0  0  0  0  0
  -34.8894    6.1994  -41.3506 C   0  0  0  0  0  0  0  0  0  0  0  0
  -35.7167    6.8736  -40.6359 N   0  0  0  0  0  0  0  0  0  0  0  0
  -35.2394    7.9758  -39.8241 C   0  0  0  0  0  0  0  0  0  0  0  0
  -33.7198    8.1512  -39.9710 C   0  0  0  0  0  0  0  0  0  0  0  0
  -33.2536    6.8363  -41.1431 S   0  0  0  0  0  0  0  0  0  0  0  0
  -36.4940    3.4600  -46.0598 X   0  0  0  0  0  0  0  0  0  0  0  0
  1  2  1  0  0  0  0
  1  6  1  0  0  0  0
  1 12  1  0  0  0  0
  2  3  1  0  0  0  0
  3  4  1  0  0  0  0
  4  5  1  0  0  0  0
  4  7  1  0  0  0  0
  5  6  1  0  0  0  0
  7  8  2  0  0  0  0
  7 11  1  0  0  0  0
  8  9  1  0  0  0  0
  9 10  1  0  0  0  0
 10 11  1  0  0  0  0
M  END
> <Index>
20105

> <PropertyFieldDistance>
nan

$$$$
14468636
BBcorina  12272117083D 1   1.00000     0.00000 
CORINA 4.3.0 0026  30.10.2019
 10 11  0  0  0  0  0  0  0  0999 V2000
  -39.9978    6.6523  -44.4919 N   0  0  0  0  0  0  0  0  0  0  0  0
  -39.1548    5.6970  -43.7606 C   0  0  0  0  0  0  0  0  0  0  0  0
  -38.7378    6.3059  -42.4209 C   0  0  0  0  0  0  0  0  0  0  0  0
  -37.9263    5.2886  -41.6171 C   0  0  0  0  0  0  0  0  0  0  0  0
  -36.6333    4.9593  -42.3712 C   0  0  0  0  0  0  0  0  0  0  0  0
  -36.9895    4.4686  -43.7729 C   0  0  0  0  0  0  0  0  0  0  0  0
  -37.9036    5.3815  -44.5876 C   0  0  0  0  0  0  0  0  0  0  0  0
  -36.0410    3.6139  -44.4793 N   0  0  0  0  0  0  0  0  0  0  0  0
  -37.0359    3.0308  -44.0202 N   0  0  0  0  0  0  0  0  0  0  0  0
  -39.1547    8.1097  -44.7908 X   0  0  0  0  0  0  0  0  0  0  0  0
  1  2  1  0  0  0  0
  1 10  1  0  0  0  0
  2  3  1  0  0  0  0
  2  7  1  0  0  0  0
  3  4  1  0  0  0  0
  4  5  1  0  0  0  0
  5  6  1  0  0  0  0
  6  7  1  0  0  0  0
  6  8  1  0  0  0  0
  6  9  1  0  0  0  0
  8  9  2  0  0  0  0
M  END
> <Index>
20115

> <PropertyFieldDistance>
nan

$$$$
10814110
BBcorina  12272117083D 1   1.00000     0.00000 
CORINA 4.3.0 0026  30.10.2019
 17 17  0  0  0  0  0  0  0  0999 V2000
  -36.4287    2.7518  -45.3187 C   0  0  0  0  0  0  0  0  0  0  0  0
  -35.9876    3.3459  -44.0497 N   0  0  0  0  0  0  0  0  0  0  0  0
  -36.9982    4.2728  -43.5229 C   0  0  0  0  0  0  0  0  0  0  0  0
  -36.5855    4.7297  -42.1197 C   0  0  0  0  0  0  0  0  0  0  0  0
  -35.2165    5.2740  -42.1852 N   0  0  0  0  0  0  0  0  0  0  0  0
  -34.1779    4.4543  -42.8275 C   0  0  0  0  0  0  0  0  0  0  0  0
  -34.6854    4.0082  -44.2029 C   0  0  0  0  0  0  0  0  0  0  0  0
  -33.6850    3.0313  -44.8241 C   0  0  0  0  0  0  0  0  0  0  0  0
  -32.4059    3.7176  -45.0495 N   0  0  0  0  0  0  0  0  0  0  0  0
  -34.9238    6.4871  -41.6761 C   0  0  0  0  0  0  0  0  0  0  0  0
  -33.7893    6.9171  -41.7444 O   0  0  0  0  0  0  0  0  0  0  0  0
  -35.8884    7.2227  -41.0919 O   0  0  0  0  0  0  0  0  0  0  0  0
  -35.5011    8.5193  -40.5657 C   0  0  0  0  0  0  0  0  0  0  0  0
  -34.9528    9.3870  -41.7003 C   0  0  0  0  0  0  0  0  0  0  0  0
  -36.7209    9.2028  -39.9447 C   0  0  0  0  0  0  0  0  0  0  0  0
  -34.4213    8.3345  -39.4976 C   0  0  0  0  0  0  0  0  0  0  0  0
  -31.2987    2.6988  -45.8619 X   0  0  0  0  0  0  0  0  0  0  0  0
  1  2  1  0  0  0  0
  2  3  1  0  0  0  0
  2  7  1  0  0  0  0
  3  4  1  0  0  0  0
  4  5  1  0  0  0  0
  5  6  1  0  0  0  0
  5 10  1  0  0  0  0
  6  7  1  0  0  0  0
  7  8  1  0  0  0  0
  8  9  1  0  0  0  0
  9 17  1  0  0  0  0
 10 11  2  0  0  0  0
 10 12  1  0  0  0  0
 12 13  1  0  0  0  0
 13 14  1  0  0  0  0
 13 15  1  0  0  0  0
 13 16  1  0  0  0  0
M  END
> <Index>
20133

> <PropertyFieldDistance>
nan

$$$$
15098674
BBcorina  12272117083D 1   1.00000     0.00000 
CORINA 4.3.0 0026  30.10.2019
 17 17  0  0  0  0  0  0  0  0999 V2000
  -36.4294    2.7522  -45.3175 C   0  0  0  0  0  0  0  0  0  0  0  0
  -35.9871    3.3464  -44.0488 N   0  0  0  0  0  0  0  0  0  0  0  0
  -36.9972    4.2733  -43.5211 C   0  0  0  0  0  0  0  0  0  0  0  0
  -36.5831    4.7303  -42.1184 C   0  0  0  0  0  0  0  0  0  0  0  0
  -35.2175    5.2723  -42.1877 N   0  0  0  0  0  0  0  0  0  0  0  0
  -34.1762    4.4551  -42.8287 C   0  0  0  0  0  0  0  0  0  0  0  0
  -32.9021    5.2854  -42.9969 C   0  0  0  0  0  0  0  0  0  0  0  0
  -31.8861    4.4871  -43.6957 N   0  0  0  0  0  0  0  0  0  0  0  0
  -34.6851    4.0089  -44.2035 C   0  0  0  0  0  0  0  0  0  0  0  0
  -34.9280    6.4854  -41.6770 C   0  0  0  0  0  0  0  0  0  0  0  0
  -33.7778    6.8764  -41.6544 O   0  0  0  0  0  0  0  0  0  0  0  0
  -35.9135    7.2642  -41.1919 O   0  0  0  0  0  0  0  0  0  0  0  0
  -35.5283    8.5582  -40.6574 C   0  0  0  0  0  0  0  0  0  0  0  0
  -34.8549    9.3837  -41.7555 C   0  0  0  0  0  0  0  0  0  0  0  0
  -36.7728    9.2941  -40.1568 C   0  0  0  0  0  0  0  0  0  0  0  0
  -34.5515    8.3603  -39.4966 C   0  0  0  0  0  0  0  0  0  0  0  0
  -30.4002    5.3288  -43.7849 X   0  0  0  0  0  0  0  0  0  0  0  0
  1  2  1  0  0  0  0
  2  3  1  0  0  0  0
  2  9  1  0  0  0  0
  3  4  1  0  0  0  0
  4  5  1  0  0  0  0
  5  6  1  0  0  0  0
  5 10  1  0  0  0  0
  6  7  1  0  0  0  0
  6  9  1  0  0  0  0
  7  8  1  0  0  0  0
  8 17  1  0  0  0  0
 10 11  2  0  0  0  0
 10 12  1  0  0  0  0
 12 13  1  0  0  0  0
 13 14  1  0  0  0  0
 13 15  1  0  0  0  0
 13 16  1  0  0  0  0
M  END
> <Index>
20134

> <PropertyFieldDistance>
nan

$$$$
15344876
BBcorina  12272117083D 1   1.00000     0.00000 
CORINA 4.3.0 0026  30.10.2019
 13 13  0  0  0  0  0  0  0  0999 V2000
  -35.8279    0.4765  -44.3965 C   0  0  0  0  0  0  0  0  0  0  0  0
  -35.7204    1.4721  -45.5532 C   0  0  0  0  0  0  0  0  0  0  0  0
  -36.5998    2.6896  -45.2617 C   0  0  0  0  0  0  0  0  0  0  0  0
  -36.5905    3.6269  -46.4709 C   0  0  0  0  0  0  0  0  0  0  0  0
  -37.5676    4.7077  -46.2615 C   0  0  0  0  0  0  0  0  0  0  0  0
  -38.3215    5.5419  -46.0999 N   0  0  0  0  0  0  0  0  0  0  0  0
  -36.0778    3.4007  -44.0869 N   0  0  0  0  0  0  0  0  0  0  0  0
  -37.0742    4.3405  -43.5544 C   0  0  0  0  0  0  0  0  0  0  0  0
  -36.5233    5.0009  -42.2885 C   0  0  0  0  0  0  0  0  0  0  0  0
  -35.2674    5.6942  -42.6077 N   0  0  0  0  0  0  0  0  0  0  0  0
  -34.2710    4.7544  -43.1402 C   0  0  0  0  0  0  0  0  0  0  0  0
  -34.8220    4.0941  -44.4062 C   0  0  0  0  0  0  0  0  0  0  0  0
  -34.6598    6.5220  -41.2403 X   0  0  0  0  0  0  0  0  0  0  0  0
  1  2  1  0  0  0  0
  2  3  1  0  0  0  0
  3  4  1  0  0  0  0
  3  7  1  0  0  0  0
  4  5  1  0  0  0  0
  5  6  3  0  0  0  0
  7  8  1  0  0  0  0
  7 12  1  0  0  0  0
  8  9  1  0  0  0  0
  9 10  1  0  0  0  0
 10 11  1  0  0  0  0
 10 13  1  0  0  0  0
 11 12  1  0  0  0  0
M  END
> <Index>
20160

> <PropertyFieldDistance>
nan

$$$$
17702338
BBcorina  12272117083D 1   1.00000     0.00000 
CORINA 4.3.0 0026  30.10.2019
 11 12  0  0  0  0  0  0  0  0999 V2000
  -37.5824    6.3051  -42.2003 C   0  0  0  0  0  0  0  0  0  0  0  0
  -36.6996    5.0760  -42.4258 C   0  0  0  0  0  0  0  0  0  0  0  0
  -36.9586    4.5023  -43.8244 C   0  0  0  0  0  0  0  0  0  0  0  0
  -35.9510    3.4794  -44.1370 N   0  0  0  0  0  0  0  0  0  0  0  0
  -34.6302    4.0884  -44.3738 C   0  0  0  0  0  0  0  0  0  0  0  0
  -34.3331    5.0202  -43.2243 C   0  0  0  0  0  0  0  0  0  0  0  0
  -33.1545    5.5566  -42.8750 C   0  0  0  0  0  0  0  0  0  0  0  0
  -33.3783    6.3564  -41.7342 C   0  0  0  0  0  0  0  0  0  0  0  0
  -34.6924    6.2750  -41.4331 C   0  0  0  0  0  0  0  0  0  0  0  0
  -35.2851    5.4600  -42.3422 N   0  0  0  0  0  0  0  0  0  0  0  0
  -36.4363    2.5294  -45.4734 X   0  0  0  0  0  0  0  0  0  0  0  0
  1  2  1  0  0  0  0
  2  3  1  0  0  0  0
  2 10  1  0  0  0  0
  3  4  1  0  0  0  0
  4  5  1  0  0  0  0
  4 11  1  0  0  0  0
  5  6  1  0  0  0  0
  6  7  2  0  0  0  0
  6 10  1  0  0  0  0
  7  8  1  0  0  0  0
  8  9  2  0  0  0  0
  9 10  1  0  0  0  0
M  END
> <Index>
20167

> <PropertyFieldDistance>
nan

$$$$
14644242
BBcorina  12272117083D 1   1.00000     0.00000 
CORINA 4.3.0 0026  30.10.2019
 11 11  0  0  0  0  0  0  0  0999 V2000
  -35.0120    5.6975  -42.4673 N   0  0  0  0  0  0  0  0  0  0  0  0
  -36.3414    5.3092  -41.9434 C   0  0  0  0  0  0  0  0  0  0  0  0
  -37.3853    5.1850  -43.0238 C   0  0  0  0  0  0  0  0  0  0  0  0
  -37.4347    3.7184  -43.5076 C   0  0  0  0  0  0  0  0  0  0  0  0
  -36.3486    3.4150  -44.3387 N   0  0  0  0  0  0  0  0  0  0  0  0
  -36.5053    2.0866  -44.9458 C   0  0  0  0  0  0  0  0  0  0  0  0
  -35.4577    1.8948  -46.0120 C   0  0  0  0  0  0  0  0  0  0  0  0
  -34.6571    0.8590  -45.9649 C   0  0  0  0  0  0  0  0  0  0  0  0
  -35.0262    3.5502  -43.6952 C   0  0  0  0  0  0  0  0  0  0  0  0
  -34.6404    5.0077  -43.7198 C   0  0  0  0  0  0  0  0  0  0  0  0
  -34.8948    7.3943  -42.6442 X   0  0  0  0  0  0  0  0  0  0  0  0
  1  2  1  0  0  0  0
  1 10  1  0  0  0  0
  1 11  1  0  0  0  0
  2  3  1  0  0  0  0
  3  4  1  0  0  0  0
  4  5  1  0  0  0  0
  5  6  1  0  0  0  0
  5  9  1  0  0  0  0
  6  7  1  0  0  0  0
  7  8  2  0  0  0  0
  9 10  1  0  0  0  0
M  END
> <Index>
20173

> <PropertyFieldDistance>
nan

$$$$
14928122
BBcorina  12272117083D 1   1.00000     0.00000 
CORINA 4.3.0 0026  30.10.2019
 15 17  0  0  0  0  0  0  0  0999 V2000
  -36.6012    0.7286  -46.0643 N   0  0  0  0  0  0  0  0  0  0  0  0
  -35.4257    1.5883  -45.8027 C   0  0  0  0  0  0  0  0  0  0  0  0
  -36.4312    2.6232  -45.2662 C   0  0  0  0  0  0  0  0  0  0  0  0
  -37.3764    1.4341  -45.0169 C   0  0  0  0  0  0  0  0  0  0  0  0
  -35.9890    3.2950  -44.0369 N   0  0  0  0  0  0  0  0  0  0  0  0
  -37.0102    4.2348  -43.5539 C   0  0  0  0  0  0  0  0  0  0  0  0
  -36.5467    4.8530  -42.2328 C   0  0  0  0  0  0  0  0  0  0  0  0
  -35.2619    5.5360  -42.4387 N   0  0  0  0  0  0  0  0  0  0  0  0
  -34.2406    4.5962  -42.9218 C   0  0  0  0  0  0  0  0  0  0  0  0
  -34.7042    3.9780  -44.2430 C   0  0  0  0  0  0  0  0  0  0  0  0
  -34.8198    6.2078  -41.2094 C   0  0  0  0  0  0  0  0  0  0  0  0
  -33.4281    6.8464  -41.2970 C   0  0  0  0  0  0  0  0  0  0  0  0
  -33.9372    7.9639  -40.5574 O   0  0  0  0  0  0  0  0  0  0  0  0
  -35.2324    7.6810  -41.1029 C   0  0  0  0  0  0  0  0  0  0  0  0
  -36.2889   -0.8907  -45.6124 X   0  0  0  0  0  0  0  0  0  0  0  0
  1  2  1  0  0  0  0
  1  4  1  0  0  0  0
  1 15  1  0  0  0  0
  2  3  1  0  0  0  0
  3  4  1  0  0  0  0
  3  5  1  0  0  0  0
  5  6  1  0  0  0  0
  5 10  1  0  0  0  0
  6  7  1  0  0  0  0
  7  8  1  0  0  0  0
  8  9  1  0  0  0  0
  8 11  1  0  0  0  0
  9 10  1  0  0  0  0
 11 12  1  0  0  0  0
 11 14  1  0  0  0  0
 12 13  1  0  0  0  0
 13 14  1  0  0  0  0
M  END
> <Index>
20179

> <PropertyFieldDistance>
nan

$$$$
15270760
BBcorina  12272117083D 1   1.00000     0.00000 
CORINA 4.3.0 0026  30.10.2019
 13 14  0  0  0  0  0  0  0  0999 V2000
  -35.8629    2.9806  -45.1631 C   0  0  0  0  0  0  0  0  0  0  0  0
  -36.0399    3.3598  -43.7549 N   0  0  0  0  0  0  0  0  0  0  0  0
  -37.2812    4.1426  -43.5688 C   0  0  0  0  0  0  0  0  0  0  0  0
  -36.9497    5.1473  -42.4369 C   0  0  0  0  0  0  0  0  0  0  0  0
  -35.4711    5.4987  -42.7517 C   0  0  0  0  0  0  0  0  0  0  0  0
  -34.9049    4.1666  -43.2795 C   0  0  0  0  0  0  0  0  0  0  0  0
  -33.9362    4.4408  -44.4300 C   0  0  0  0  0  0  0  0  0  0  0  0
  -32.7355    5.2294  -43.8990 C   0  0  0  0  0  0  0  0  0  0  0  0
  -32.1170    4.4959  -42.8400 O   0  0  0  0  0  0  0  0  0  0  0  0
  -32.9662    4.2657  -41.7138 C   0  0  0  0  0  0  0  0  0  0  0  0
  -34.1767    3.4357  -42.1513 C   0  0  0  0  0  0  0  0  0  0  0  0
  -37.8036    6.3394  -42.5237 N   0  0  0  0  0  0  0  0  0  0  0  0
  -37.8332    6.9572  -44.1178 X   0  0  0  0  0  0  0  0  0  0  0  0
  1  2  1  0  0  0  0
  2  3  1  0  0  0  0
  2  6  1  0  0  0  0
  3  4  1  0  0  0  0
  4  5  1  0  0  0  0
  4 12  1  0  0  0  0
  5  6  1  0  0  0  0
  6  7  1  0  0  0  0
  6 11  1  0  0  0  0
  7  8  1  0  0  0  0
  8  9  1  0  0  0  0
  9 10  1  0  0  0  0
 10 11  1  0  0  0  0
 12 13  1  0  0  0  0
M  END
> <Index>
20235

> <PropertyFieldDistance>
nan

$$$$
15122088
BBcorina  12272117083D 1   1.00000     0.00000 
CORINA 4.3.0 0026  30.10.2019
 15 16  0  0  0  0  0  0  0  0999 V2000
  -36.1378    1.3423  -45.2198 C   0  0  0  0  0  0  0  0  0  0  0  0
  -36.3433    2.8214  -45.5529 C   0  0  0  0  0  0  0  0  0  0  0  0
  -35.9854    3.6381  -44.3905 N   0  0  0  0  0  0  0  0  0  0  0  0
  -37.0318    3.9455  -43.4235 C   0  0  0  0  0  0  0  0  0  0  0  0
  -36.6333    5.1491  -42.5683 C   0  0  0  0  0  0  0  0  0  0  0  0
  -35.2263    4.9086  -42.0080 C   0  0  0  0  0  0  0  0  0  0  0  0
  -34.2312    4.9342  -43.1708 C   0  0  0  0  0  0  0  0  0  0  0  0
  -32.9246    4.4498  -42.7058 N   0  0  0  0  0  0  0  0  0  0  0  0
  -31.8773    4.6904  -43.7228 C   0  0  0  0  0  0  0  0  0  0  0  0
  -31.3721    3.2753  -43.3882 C   0  0  0  0  0  0  0  0  0  0  0  0
  -32.8013    2.9852  -42.8951 C   0  0  0  0  0  0  0  0  0  0  0  0
  -30.9834    2.4917  -44.5684 N   0  0  0  0  0  0  0  0  0  0  0  0
  -34.7227    4.0532  -44.2833 C   0  0  0  0  0  0  0  0  0  0  0  0
  -33.9286    3.7002  -45.1294 O   0  0  0  0  0  0  0  0  0  0  0  0
  -29.7784    1.3448  -44.1729 X   0  0  0  0  0  0  0  0  0  0  0  0
  1  2  1  0  0  0  0
  2  3  1  0  0  0  0
  3  4  1  0  0  0  0
  3 13  1  0  0  0  0
  4  5  1  0  0  0  0
  5  6  1  0  0  0  0
  6  7  1  0  0  0  0
  7  8  1  0  0  0  0
  7 13  1  0  0  0  0
  8  9  1  0  0  0  0
  8 11  1  0  0  0  0
  9 10  1  0  0  0  0
 10 11  1  0  0  0  0
 10 12  1  0  0  0  0
 12 15  1  0  0  0  0
 13 14  2  0  0  0  0
M  END
> <Index>
20237

> <PropertyFieldDistance>
nan

$$$$
15065988
BBcorina  12272117083D 1   1.00000     0.00000 
CORINA 4.3.0 0026  30.10.2019
 13 14  0  0  0  0  0  0  0  0999 V2000
  -34.9719    6.8754  -41.8549 N   0  0  0  0  0  0  0  0  0  0  0  0
  -35.2421    5.4959  -42.2812 C   0  0  0  0  0  0  0  0  0  0  0  0
  -36.6958    5.3800  -42.7481 C   0  0  0  0  0  0  0  0  0  0  0  0
  -36.9540    3.9567  -43.2480 C   0  0  0  0  0  0  0  0  0  0  0  0
  -36.0396    3.6522  -44.3558 N   0  0  0  0  0  0  0  0  0  0  0  0
  -34.6386    3.7109  -43.9194 C   0  0  0  0  0  0  0  0  0  0  0  0
  -34.3113    5.1269  -43.4397 C   0  0  0  0  0  0  0  0  0  0  0  0
  -36.3355    2.4110  -44.9221 C   0  0  0  0  0  0  0  0  0  0  0  0
  -35.6873    1.8485  -45.9467 N   0  0  0  0  0  0  0  0  0  0  0  0
  -36.2180    0.6840  -46.2207 C   0  0  0  0  0  0  0  0  0  0  0  0
  -37.2320    0.4729  -45.3650 N   0  0  0  0  0  0  0  0  0  0  0  0
  -37.2921    1.6021  -44.5324 N   0  0  0  0  0  0  0  0  0  0  0  0
  -33.7807    6.9158  -40.6287 X   0  0  0  0  0  0  0  0  0  0  0  0
  1  2  1  0  0  0  0
  1 13  1  0  0  0  0
  2  3  1  0  0  0  0
  2  7  1  0  0  0  0
  3  4  1  0  0  0  0
  4  5  1  0  0  0  0
  5  6  1  0  0  0  0
  5  8  1  0  0  0  0
  6  7  1  0  0  0  0
  8  9  1  0  0  0  0
  8 12  2  0  0  0  0
  9 10  2  0  0  0  0
 10 11  1  0  0  0  0
 11 12  1  0  0  0  0
M  END
> <Index>
20239

> <PropertyFieldDistance>
nan

$$$$
15065990
BBcorina  12272117083D 1   1.00000     0.00000 
CORINA 4.3.0 0026  30.10.2019
 14 15  0  0  0  0  0  0  0  0999 V2000
  -33.6047    7.0159  -41.2783 N   0  0  0  0  0  0  0  0  0  0  0  0
  -34.9607    6.9328  -41.8372 C   0  0  0  0  0  0  0  0  0  0  0  0
  -35.2421    5.4959  -42.2812 C   0  0  0  0  0  0  0  0  0  0  0  0
  -36.6958    5.3800  -42.7481 C   0  0  0  0  0  0  0  0  0  0  0  0
  -36.9540    3.9567  -43.2480 C   0  0  0  0  0  0  0  0  0  0  0  0
  -36.0396    3.6522  -44.3558 N   0  0  0  0  0  0  0  0  0  0  0  0
  -34.6386    3.7109  -43.9194 C   0  0  0  0  0  0  0  0  0  0  0  0
  -34.3113    5.1269  -43.4397 C   0  0  0  0  0  0  0  0  0  0  0  0
  -36.3355    2.4110  -44.9221 C   0  0  0  0  0  0  0  0  0  0  0  0
  -35.6873    1.8485  -45.9467 N   0  0  0  0  0  0  0  0  0  0  0  0
  -36.2180    0.6840  -46.2207 C   0  0  0  0  0  0  0  0  0  0  0  0
  -37.2320    0.4729  -45.3650 N   0  0  0  0  0  0  0  0  0  0  0  0
  -37.2921    1.6021  -44.5324 N   0  0  0  0  0  0  0  0  0  0  0  0
  -33.2487    8.6088  -40.7684 X   0  0  0  0  0  0  0  0  0  0  0  0
  1  2  1  0  0  0  0
  1 14  1  0  0  0  0
  2  3  1  0  0  0  0
  3  4  1  0  0  0  0
  3  8  1  0  0  0  0
  4  5  1  0  0  0  0
  5  6  1  0  0  0  0
  6  7  1  0  0  0  0
  6  9  1  0  0  0  0
  7  8  1  0  0  0  0
  9 10  1  0  0  0  0
  9 13  2  0  0  0  0
 10 11  2  0  0  0  0
 11 12  1  0  0  0  0
 12 13  1  0  0  0  0
M  END
> <Index>
20240

> <PropertyFieldDistance>
nan

$$$$
14932194
BBcorina  12272117083D 1   1.00000     0.00000 
CORINA 4.3.0 0026  30.10.2019
 11 12  0  0  0  0  0  0  0  0999 V2000
  -36.0173    3.5927  -44.4913 N   0  0  0  0  0  0  0  0  0  0  0  0
  -36.3933    2.1751  -44.5753 C   0  0  0  0  0  0  0  0  0  0  0  0
  -36.1059    1.6538  -45.9847 C   0  0  0  0  0  0  0  0  0  0  0  0
  -34.5829    1.6299  -46.2413 C   0  0  0  0  0  0  0  0  0  0  0  0
  -34.3582    0.3474  -47.0815 C   0  0  0  0  0  0  0  0  0  0  0  0
  -35.3607   -0.6558  -46.4544 C   0  0  0  0  0  0  0  0  0  0  0  0
  -36.5880    0.2061  -46.1187 C   0  0  0  0  0  0  0  0  0  0  0  0
  -37.4480   -0.3085  -44.9624 C   0  0  0  0  0  0  0  0  0  0  0  0
  -38.2759   -1.0564  -46.0228 C   0  0  0  0  0  0  0  0  0  0  0  0
  -37.7972    0.0007  -47.0340 C   0  0  0  0  0  0  0  0  0  0  0  0
  -36.3229    4.2163  -42.9287 X   0  0  0  0  0  0  0  0  0  0  0  0
  1  2  1  0  0  0  0
  1 11  1  0  0  0  0
  2  3  1  0  0  0  0
  3  4  1  0  0  0  0
  3  7  1  0  0  0  0
  4  5  1  0  0  0  0
  5  6  1  0  0  0  0
  6  7  1  0  0  0  0
  7  8  1  0  0  0  0
  7 10  1  0  0  0  0
  8  9  1  0  0  0  0
  9 10  1  0  0  0  0
M  END
> <Index>
20242

> <PropertyFieldDistance>
nan

$$$$
14928156
BBcorina  12272117083D 1   1.00000     0.00000 
CORINA 4.3.0 0026  30.10.2019
 12 13  0  0  0  0  0  0  0  0999 V2000
  -36.0368    4.0621  -44.6428 N   0  0  0  0  0  0  0  0  0  0  0  0
  -36.9782    4.0803  -43.5144 C   0  0  0  0  0  0  0  0  0  0  0  0
  -36.5940    5.2058  -42.5511 C   0  0  0  0  0  0  0  0  0  0  0  0
  -35.2175    4.9966  -42.0809 N   0  0  0  0  0  0  0  0  0  0  0  0
  -34.2760    4.9783  -43.2097 C   0  0  0  0  0  0  0  0  0  0  0  0
  -34.6602    3.8527  -44.1731 C   0  0  0  0  0  0  0  0  0  0  0  0
  -34.8533    5.9741  -41.1352 C   0  0  0  0  0  0  0  0  0  0  0  0
  -35.6647    7.0216  -40.6765 C   0  0  0  0  0  0  0  0  0  0  0  0
  -34.9827    7.7201  -39.8048 N   0  0  0  0  0  0  0  0  0  0  0  0
  -33.7123    7.1445  -39.6753 N   0  0  0  0  0  0  0  0  0  0  0  0
  -33.6569    6.0659  -40.5014 C   0  0  0  0  0  0  0  0  0  0  0  0
  -36.4797    2.8751  -45.7913 X   0  0  0  0  0  0  0  0  0  0  0  0
  1  2  1  0  0  0  0
  1  6  1  0  0  0  0
  1 12  1  0  0  0  0
  2  3  1  0  0  0  0
  3  4  1  0  0  0  0
  4  5  1  0  0  0  0
  4  7  1  0  0  0  0
  5  6  1  0  0  0  0
  7  8  1  0  0  0  0
  7 11  2  0  0  0  0
  8  9  2  0  0  0  0
  9 10  1  0  0  0  0
 10 11  1  0  0  0  0
M  END
> <Index>
20245

> <PropertyFieldDistance>
nan

$$$$
17551644
BBcorina  12272117083D 1   1.00000     0.00000 
CORINA 4.3.0 0026  30.10.2019
 15 16  0  0  0  0  0  0  0  0999 V2000
  -36.3495    2.3571  -44.9464 C   0  0  0  0  0  0  0  0  0  0  0  0
  -36.0372    3.6631  -44.3508 N   0  0  0  0  0  0  0  0  0  0  0  0
  -36.9514    3.9682  -43.2428 C   0  0  0  0  0  0  0  0  0  0  0  0
  -36.6923    5.3914  -42.7433 C   0  0  0  0  0  0  0  0  0  0  0  0
  -35.2385    5.5067  -42.2767 C   0  0  0  0  0  0  0  0  0  0  0  0
  -34.3080    5.1368  -43.4352 C   0  0  0  0  0  0  0  0  0  0  0  0
  -34.6362    3.7211  -43.9146 C   0  0  0  0  0  0  0  0  0  0  0  0
  -34.9605    6.9218  -41.8395 C   0  0  0  0  0  0  0  0  0  0  0  0
  -35.1009    7.9625  -42.7389 C   0  0  0  0  0  0  0  0  0  0  0  0
  -34.8523    9.2634  -42.3402 C   0  0  0  0  0  0  0  0  0  0  0  0
  -34.4519    9.5256  -41.0450 C   0  0  0  0  0  0  0  0  0  0  0  0
  -34.3043    8.4817  -40.1403 C   0  0  0  0  0  0  0  0  0  0  0  0
  -33.8999    8.7434  -38.8293 N   0  0  0  0  0  0  0  0  0  0  0  0
  -34.5603    7.1771  -40.5424 C   0  0  0  0  0  0  0  0  0  0  0  0
  -33.5853   10.3503  -38.3363 X   0  0  0  0  0  0  0  0  0  0  0  0
  1  2  1  0  0  0  0
  2  3  1  0  0  0  0
  2  7  1  0  0  0  0
  3  4  1  0  0  0  0
  4  5  1  0  0  0  0
  5  6  1  0  0  0  0
  5  8  1  0  0  0  0
  6  7  1  0  0  0  0
  8  9  2  0  0  0  0
  8 14  1  0  0  0  0
  9 10  1  0  0  0  0
 10 11  2  0  0  0  0
 11 12  1  0  0  0  0
 12 13  1  0  0  0  0
 12 14  2  0  0  0  0
 13 15  1  0  0  0  0
M  END
> <Index>
20266

> <PropertyFieldDistance>
nan

$$$$
14773912
BBcorina  12272117083D 1   1.00000     0.00000 
CORINA 4.3.0 0026  30.10.2019
 11 12  0  0  0  0  0  0  0  0999 V2000
  -39.1329    3.4212  -42.0475 C   0  0  0  0  0  0  0  0  0  0  0  0
  -38.9895    3.2287  -43.4967 N   0  0  0  0  0  0  0  0  0  0  0  0
  -40.2595    2.8024  -44.0994 C   0  0  0  0  0  0  0  0  0  0  0  0
  -38.4834    4.4473  -44.1422 C   0  0  0  0  0  0  0  0  0  0  0  0
  -36.9814    4.5767  -43.8811 C   0  0  0  0  0  0  0  0  0  0  0  0
  -36.4640    4.8105  -42.4400 C   0  0  0  0  0  0  0  0  0  0  0  0
  -35.2019    5.2938  -43.2020 C   0  0  0  0  0  0  0  0  0  0  0  0
  -36.2861    5.9507  -44.1110 C   0  0  0  0  0  0  0  0  0  0  0  0
  -36.0783    3.4971  -44.4066 N   0  0  0  0  0  0  0  0  0  0  0  0
  -34.7340    3.9789  -43.9153 C   0  0  0  0  0  0  0  0  0  0  0  0
  -36.1332    3.4297  -46.1143 X   0  0  0  0  0  0  0  0  0  0  0  0
  1  2  1  0  0  0  0
  2  3  1  0  0  0  0
  2  4  1  0  0  0  0
  4  5  1  0  0  0  0
  5  6  1  0  0  0  0
  5  8  1  0  0  0  0
  5  9  1  0  0  0  0
  6  7  1  0  0  0  0
  7  8  1  0  0  0  0
  7 10  1  0  0  0  0
  9 10  1  0  0  0  0
  9 11  1  0  0  0  0
M  END
> <Index>
20269

> <PropertyFieldDistance>
nan

$$$$
14797318
BBcorina  12272117083D 1   1.00000     0.00000 
CORINA 4.3.0 0026  30.10.2019
 10 10  0  0  0  0  0  0  0  0999 V2000
  -35.1843    0.2012  -45.4073 C   0  0  0  0  0  0  0  0  0  0  0  0
  -35.1633    1.4779  -44.6890 N   0  0  0  0  0  0  0  0  0  0  0  0
  -36.2359    2.2929  -44.7316 C   0  0  0  0  0  0  0  0  0  0  0  0
  -37.2210    1.9684  -45.3663 O   0  0  0  0  0  0  0  0  0  0  0  0
  -36.2166    3.4673  -44.0708 N   0  0  0  0  0  0  0  0  0  0  0  0
  -37.1478    4.5892  -43.8778 C   0  0  0  0  0  0  0  0  0  0  0  0
  -36.4508    4.8665  -42.5387 C   0  0  0  0  0  0  0  0  0  0  0  0
  -35.2576    4.1881  -43.2201 C   0  0  0  0  0  0  0  0  0  0  0  0
  -36.2508    6.2925  -42.2477 N   0  0  0  0  0  0  0  0  0  0  0  0
  -35.3793    7.0580  -43.5041 X   0  0  0  0  0  0  0  0  0  0  0  0
  1  2  1  0  0  0  0
  2  3  1  0  0  0  0
  3  4  2  0  0  0  0
  3  5  1  0  0  0  0
  5  6  1  0  0  0  0
  5  8  1  0  0  0  0
  6  7  1  0  0  0  0
  7  8  1  0  0  0  0
  7  9  1  0  0  0  0
  9 10  1  0  0  0  0
M  END
> <Index>
20274

> <PropertyFieldDistance>
nan

$$$$
10639634
BBcorina  12272117083D 1   1.00000     0.00000 
CORINA 4.3.0 0026  30.10.2019
  9  9  0  0  0  0  0  0  0  0999 V2000
  -32.8471    4.9088  -42.7406 C   0  0  0  0  0  0  0  0  0  0  0  0
  -34.2769    5.0496  -43.2665 C   0  0  0  0  0  0  0  0  0  0  0  0
  -34.3703    6.1945  -44.0651 F   0  0  0  0  0  0  0  0  0  0  0  0
  -35.2462    5.1676  -42.0870 C   0  0  0  0  0  0  0  0  0  0  0  0
  -36.6793    5.2476  -42.6202 C   0  0  0  0  0  0  0  0  0  0  0  0
  -36.9723    4.0086  -43.4694 C   0  0  0  0  0  0  0  0  0  0  0  0
  -36.0191    3.9414  -44.5846 N   0  0  0  0  0  0  0  0  0  0  0  0
  -34.6396    3.8164  -44.0970 C   0  0  0  0  0  0  0  0  0  0  0  0
  -36.4111    2.6621  -45.6494 X   0  0  0  0  0  0  0  0  0  0  0  0
  1  2  1  0  0  0  0
  2  3  1  0  0  0  0
  2  4  1  0  0  0  0
  2  8  1  0  0  0  0
  4  5  1  0  0  0  0
  5  6  1  0  0  0  0
  6  7  1  0  0  0  0
  7  8  1  0  0  0  0
  7  9  1  0  0  0  0
M  END
> <Index>
20282

> <PropertyFieldDistance>
nan

$$$$
15089008
BBcorina  12272117083D 1   1.00000     0.00000 
CORINA 4.3.0 0026  30.10.2019
 10 11  0  0  0  0  0  0  0  0999 V2000
  -36.0223    3.9381  -44.5832 N   0  0  0  0  0  0  0  0  0  0  0  0
  -36.9539    4.0002  -43.4502 C   0  0  0  0  0  0  0  0  0  0  0  0
  -36.6896    5.2664  -42.6325 C   0  0  0  0  0  0  0  0  0  0  0  0
  -35.2580    5.2229  -42.0856 C   0  0  0  0  0  0  0  0  0  0  0  0
  -34.2905    5.0326  -43.2510 C   0  0  0  0  0  0  0  0  0  0  0  0
  -32.8122    5.1066  -42.8455 C   0  0  0  0  0  0  0  0  0  0  0  0
  -32.9176    6.6078  -43.1785 C   0  0  0  0  0  0  0  0  0  0  0  0
  -34.0441    6.2334  -43.9986 O   0  0  0  0  0  0  0  0  0  0  0  0
  -34.6310    3.8263  -44.1207 C   0  0  0  0  0  0  0  0  0  0  0  0
  -36.4232    2.6520  -45.6364 X   0  0  0  0  0  0  0  0  0  0  0  0
  1  2  1  0  0  0  0
  1  9  1  0  0  0  0
  1 10  1  0  0  0  0
  2  3  1  0  0  0  0
  3  4  1  0  0  0  0
  4  5  1  0  0  0  0
  5  6  1  0  0  0  0
  5  8  1  0  0  0  0
  5  9  1  0  0  0  0
  6  7  1  0  0  0  0
  7  8  1  0  0  0  0
M  END
> <Index>
20286

> <PropertyFieldDistance>
nan

$$$$
10683892
BBcorina  12272117083D 1   1.00000     0.00000 
CORINA 4.3.0 0026  30.10.2019
  8  8  0  0  0  0  0  0  0  0999 V2000
  -36.0204    3.6367  -44.4097 N   0  0  0  0  0  0  0  0  0  0  0  0
  -37.0558    4.4945  -43.7930 C   0  0  0  0  0  0  0  0  0  0  0  0
  -36.5875    4.9106  -42.4208 C   0  0  0  0  0  0  0  0  0  0  0  0
  -35.8829    6.1664  -42.4412 O   0  0  0  0  0  0  0  0  0  0  0  0
  -34.9780    6.3577  -43.5451 C   0  0  0  0  0  0  0  0  0  0  0  0
  -34.1966    5.1085  -43.8680 C   0  0  0  0  0  0  0  0  0  0  0  0
  -34.9268    4.3440  -44.9026 N   0  0  0  0  0  0  0  0  0  0  0  0
  -36.6963    2.6331  -45.6181 X   0  0  0  0  0  0  0  0  0  0  0  0
  1  2  1  0  0  0  0
  1  7  1  0  0  0  0
  1  8  1  0  0  0  0
  2  3  1  0  0  0  0
  3  4  1  0  0  0  0
  4  5  1  0  0  0  0
  5  6  1  0  0  0  0
  6  7  1  0  0  0  0
M  END
> <Index>
20287

> <PropertyFieldDistance>
nan

$$$$
13575106
BBcorina  12272117083D 1   1.00000     0.00000 
CORINA 4.3.0 0026  30.10.2019
 12 13  0  0  0  0  0  0  0  0999 V2000
  -35.9479    3.4664  -44.1723 N   0  0  0  0  0  0  0  0  0  0  0  0
  -37.0290    4.3869  -43.7978 C   0  0  0  0  0  0  0  0  0  0  0  0
  -36.6587    5.1099  -42.5007 C   0  0  0  0  0  0  0  0  0  0  0  0
  -35.3534    5.8832  -42.7080 C   0  0  0  0  0  0  0  0  0  0  0  0
  -34.2559    4.9088  -43.1443 C   0  0  0  0  0  0  0  0  0  0  0  0
  -34.6959    4.1916  -44.4226 C   0  0  0  0  0  0  0  0  0  0  0  0
  -33.0179    5.6492  -43.4003 N   0  0  0  0  0  0  0  0  0  0  0  0
  -31.9075    5.4517  -42.7824 N   0  0  0  0  0  0  0  0  0  0  0  0
  -31.0075    6.2831  -43.2568 C   0  0  0  0  0  0  0  0  0  0  0  0
  -31.6583    7.0312  -44.2405 C   0  0  0  0  0  0  0  0  0  0  0  0
  -32.8923    6.5816  -44.2771 N   0  0  0  0  0  0  0  0  0  0  0  0
  -36.3899    2.5210  -45.5269 X   0  0  0  0  0  0  0  0  0  0  0  0
  1  2  1  0  0  0  0
  1  6  1  0  0  0  0
  1 12  1  0  0  0  0
  2  3  1  0  0  0  0
  3  4  1  0  0  0  0
  4  5  1  0  0  0  0
  5  6  1  0  0  0  0
  5  7  1  0  0  0  0
  7  8  1  0  0  0  0
  7 11  1  0  0  0  0
  8  9  2  0  0  0  0
  9 10  1  0  0  0  0
 10 11  2  0  0  0  0
M  END
> <Index>
20290

> <PropertyFieldDistance>
nan

$$$$
16510218
BBcorina  12272117083D 1   1.00000     0.00000 
CORINA 4.3.0 0026  30.10.2019
 13 13  0  0  0  0  0  0  0  0999 V2000
  -37.2414   11.0976  -37.6654 C   0  0  0  0  0  0  0  0  0  0  0  0
  -36.2045   10.0351  -38.0354 C   0  0  0  0  0  0  0  0  0  0  0  0
  -36.6121    9.3595  -39.3462 C   0  0  0  0  0  0  0  0  0  0  0  0
  -35.5752    8.2970  -39.7163 C   0  0  0  0  0  0  0  0  0  0  0  0
  -35.9828    7.6214  -41.0271 C   0  0  0  0  0  0  0  0  0  0  0  0
  -34.9460    6.5589  -41.3971 C   0  0  0  0  0  0  0  0  0  0  0  0
  -35.3535    5.8833  -42.7079 C   0  0  0  0  0  0  0  0  0  0  0  0
  -36.6585    5.1099  -42.5008 C   0  0  0  0  0  0  0  0  0  0  0  0
  -37.0291    4.3869  -43.7977 C   0  0  0  0  0  0  0  0  0  0  0  0
  -35.9480    3.4664  -44.1723 N   0  0  0  0  0  0  0  0  0  0  0  0
  -34.6958    4.1916  -44.4226 C   0  0  0  0  0  0  0  0  0  0  0  0
  -34.2559    4.9088  -43.1442 C   0  0  0  0  0  0  0  0  0  0  0  0
  -36.3899    2.5211  -45.5270 X   0  0  0  0  0  0  0  0  0  0  0  0
  1  2  1  0  0  0  0
  2  3  1  0  0  0  0
  3  4  1  0  0  0  0
  4  5  1  0  0  0  0
  5  6  1  0  0  0  0
  6  7  1  0  0  0  0
  7  8  1  0  0  0  0
  7 12  1  0  0  0  0
  8  9  1  0  0  0  0
  9 10  1  0  0  0  0
 10 11  1  0  0  0  0
 10 13  1  0  0  0  0
 11 12  1  0  0  0  0
M  END
> <Index>
20292

> <PropertyFieldDistance>
nan

$$$$
9823082
BBcorina  12272117083D 1   1.00000     0.00000 
CORINA 4.3.0 0026  30.10.2019
 14 15  0  0  0  0  0  0  0  0999 V2000
  -33.9778   -0.1682  -45.1994 N   0  0  0  0  0  0  0  0  0  0  0  0
  -34.5093   -0.9905  -46.2937 C   0  0  0  0  0  0  0  0  0  0  0  0
  -35.0386   -0.0819  -47.4056 C   0  0  0  0  0  0  0  0  0  0  0  0
  -36.1383    0.8210  -46.8401 C   0  0  0  0  0  0  0  0  0  0  0  0
  -35.5716    1.6312  -45.6708 C   0  0  0  0  0  0  0  0  0  0  0  0
  -36.6796    2.4929  -45.0620 C   0  0  0  0  0  0  0  0  0  0  0  0
  -36.1108    3.3562  -44.0184 N   0  0  0  0  0  0  0  0  0  0  0  0
  -37.0879    4.3615  -43.5758 C   0  0  0  0  0  0  0  0  0  0  0  0
  -36.4762    5.1987  -42.4493 C   0  0  0  0  0  0  0  0  0  0  0  0
  -35.2596    5.7926  -42.9104 O   0  0  0  0  0  0  0  0  0  0  0  0
  -34.2849    4.8420  -43.3486 C   0  0  0  0  0  0  0  0  0  0  0  0
  -34.8745    4.0012  -44.4841 C   0  0  0  0  0  0  0  0  0  0  0  0
  -35.0269    0.6729  -44.6092 C   0  0  0  0  0  0  0  0  0  0  0  0
  -33.2306   -1.1416  -44.0085 X   0  0  0  0  0  0  0  0  0  0  0  0
  1  2  1  0  0  0  0
  1 13  1  0  0  0  0
  1 14  1  0  0  0  0
  2  3  1  0  0  0  0
  3  4  1  0  0  0  0
  4  5  1  0  0  0  0
  5  6  1  0  0  0  0
  5 13  1  0  0  0  0
  6  7  1  0  0  0  0
  7  8  1  0  0  0  0
  7 12  1  0  0  0  0
  8  9  1  0  0  0  0
  9 10  1  0  0  0  0
 10 11  1  0  0  0  0
 11 12  1  0  0  0  0
M  END
> <Index>
20295

> <PropertyFieldDistance>
nan

$$$$
15356050
BBcorina  12272117083D 1   1.00000     0.00000 
CORINA 4.3.0 0026  30.10.2019
 12 13  0  0  0  0  0  0  0  0999 V2000
  -32.9086    5.3828  -45.4607 F   0  0  0  0  0  0  0  0  0  0  0  0
  -33.5546    4.5045  -44.5840 C   0  0  0  0  0  0  0  0  0  0  0  0
  -32.7753    4.0289  -43.5240 F   0  0  0  0  0  0  0  0  0  0  0  0
  -35.0418    4.7426  -44.3152 C   0  0  0  0  0  0  0  0  0  0  0  0
  -35.5660    4.3845  -42.9157 C   0  0  0  0  0  0  0  0  0  0  0  0
  -36.9486    3.7508  -43.0513 C   0  0  0  0  0  0  0  0  0  0  0  0
  -36.8579    2.2431  -43.1783 C   0  0  0  0  0  0  0  0  0  0  0  0
  -36.2111    1.7901  -44.4722 C   0  0  0  0  0  0  0  0  0  0  0  0
  -34.7329    2.1698  -44.5208 C   0  0  0  0  0  0  0  0  0  0  0  0
  -34.5941    3.5519  -45.1782 C   0  0  0  0  0  0  0  0  0  0  0  0
  -36.0740    1.7210  -42.0509 N   0  0  0  0  0  0  0  0  0  0  0  0
  -36.4909    0.0971  -41.7146 X   0  0  0  0  0  0  0  0  0  0  0  0
  1  2  1  0  0  0  0
  2  3  1  0  0  0  0
  2  4  1  0  0  0  0
  2 10  1  0  0  0  0
  4  5  1  0  0  0  0
  4 10  1  0  0  0  0
  5  6  1  0  0  0  0
  6  7  1  0  0  0  0
  7  8  1  0  0  0  0
  7 11  1  0  0  0  0
  8  9  1  0  0  0  0
  9 10  1  0  0  0  0
 11 12  1  0  0  0  0
M  END
> <Index>
20323

> <PropertyFieldDistance>
nan

$$$$
15102426
BBcorina  12272117083D 1   1.00000     0.00000 
CORINA 4.3.0 0026  30.10.2019
 11 12  0  0  0  0  0  0  0  0999 V2000
  -35.9201    2.8675  -45.1793 C   0  0  0  0  0  0  0  0  0  0  0  0
  -36.0896    3.2961  -43.7845 N   0  0  0  0  0  0  0  0  0  0  0  0
  -37.1688    4.3130  -43.6666 C   0  0  0  0  0  0  0  0  0  0  0  0
  -36.8610    5.0638  -42.3524 C   0  0  0  0  0  0  0  0  0  0  0  0
  -35.3480    4.8585  -42.1176 C   0  0  0  0  0  0  0  0  0  0  0  0
  -34.8821    3.9900  -43.2932 C   0  0  0  0  0  0  0  0  0  0  0  0
  -34.0531    4.7073  -44.3572 C   0  0  0  0  0  0  0  0  0  0  0  0
  -33.2255    3.4131  -44.4605 C   0  0  0  0  0  0  0  0  0  0  0  0
  -33.6702    3.1012  -43.0198 C   0  0  0  0  0  0  0  0  0  0  0  0
  -37.1655    6.4935  -42.4982 N   0  0  0  0  0  0  0  0  0  0  0  0
  -36.3214    7.1676  -43.8237 X   0  0  0  0  0  0  0  0  0  0  0  0
  1  2  1  0  0  0  0
  2  3  1  0  0  0  0
  2  6  1  0  0  0  0
  3  4  1  0  0  0  0
  4  5  1  0  0  0  0
  4 10  1  0  0  0  0
  5  6  1  0  0  0  0
  6  7  1  0  0  0  0
  6  9  1  0  0  0  0
  7  8  1  0  0  0  0
  8  9  1  0  0  0  0
 10 11  1  0  0  0  0
M  END
> <Index>
20340

> <PropertyFieldDistance>
nan

$$$$
15139964
BBcorina  12272117083D 1   1.00000     0.00000 
CORINA 4.3.0 0026  30.10.2019
 13 14  0  0  0  0  0  0  0  0999 V2000
  -29.6211    6.2137  -41.7962 C   0  0  0  0  0  0  0  0  0  0  0  0
  -30.8759    5.4464  -42.1247 C   0  0  0  0  0  0  0  0  0  0  0  0
  -31.0544    4.0665  -41.9820 C   0  0  0  0  0  0  0  0  0  0  0  0
  -32.3120    3.7660  -42.3811 C   0  0  0  0  0  0  0  0  0  0  0  0
  -32.9080    4.9149  -42.7627 N   0  0  0  0  0  0  0  0  0  0  0  0
  -31.9845    5.9552  -42.5978 N   0  0  0  0  0  0  0  0  0  0  0  0
  -34.2772    5.0495  -43.2665 C   0  0  0  0  0  0  0  0  0  0  0  0
  -35.2460    5.1676  -42.0869 C   0  0  0  0  0  0  0  0  0  0  0  0
  -36.6792    5.2476  -42.6202 C   0  0  0  0  0  0  0  0  0  0  0  0
  -36.9723    4.0087  -43.4694 C   0  0  0  0  0  0  0  0  0  0  0  0
  -36.0191    3.9414  -44.5846 N   0  0  0  0  0  0  0  0  0  0  0  0
  -34.6395    3.8164  -44.0970 C   0  0  0  0  0  0  0  0  0  0  0  0
  -36.4111    2.6621  -45.6494 X   0  0  0  0  0  0  0  0  0  0  0  0
  1  2  1  0  0  0  0
  2  3  1  0  0  0  0
  2  6  2  0  0  0  0
  3  4  2  0  0  0  0
  4  5  1  0  0  0  0
  5  6  1  0  0  0  0
  5  7  1  0  0  0  0
  7  8  1  0  0  0  0
  7 12  1  0  0  0  0
  8  9  1  0  0  0  0
  9 10  1  0  0  0  0
 10 11  1  0  0  0  0
 11 12  1  0  0  0  0
 11 13  1  0  0  0  0
M  END
> <Index>
20345

> <PropertyFieldDistance>
nan

$$$$
15152936
BBcorina  12272117083D 1   1.00000     0.00000 
CORINA 4.3.0 0026  30.10.2019
 12 12  0  0  0  0  0  0  0  0999 V2000
  -37.2856    5.5340  -45.5799 F   0  0  0  0  0  0  0  0  0  0  0  0
  -35.9028    5.4841  -45.3733 C   0  0  0  0  0  0  0  0  0  0  0  0
  -35.4986    6.6110  -44.6495 F   0  0  0  0  0  0  0  0  0  0  0  0
  -35.5498    4.2196  -44.5876 C   0  0  0  0  0  0  0  0  0  0  0  0
  -35.8145    2.9899  -45.4772 C   0  0  0  0  0  0  0  0  0  0  0  0
  -35.9078    1.6794  -44.6724 C   0  0  0  0  0  0  0  0  0  0  0  0
  -34.8629    1.5936  -43.5919 C   0  0  0  0  0  0  0  0  0  0  0  0
  -35.4782    2.1088  -42.2747 C   0  0  0  0  0  0  0  0  0  0  0  0
  -35.4953    3.5624  -42.2038 C   0  0  0  0  0  0  0  0  0  0  0  0
  -36.3553    4.1952  -43.3169 C   0  0  0  0  0  0  0  0  0  0  0  0
  -34.6943    1.5867  -41.1473 N   0  0  0  0  0  0  0  0  0  0  0  0
  -33.1064    2.2212  -41.1591 X   0  0  0  0  0  0  0  0  0  0  0  0
  1  2  1  0  0  0  0
  2  3  1  0  0  0  0
  2  4  1  0  0  0  0
  4  5  1  0  0  0  0
  4 10  1  0  0  0  0
  5  6  1  0  0  0  0
  6  7  1  0  0  0  0
  7  8  1  0  0  0  0
  8  9  1  0  0  0  0
  8 11  1  0  0  0  0
  9 10  1  0  0  0  0
 11 12  1  0  0  0  0
M  END
> <Index>
20348

> <PropertyFieldDistance>
nan

$$$$
15153072
BBcorina  12272117083D 1   1.00000     0.00000 
CORINA 4.3.0 0026  30.10.2019
 12 12  0  0  0  0  0  0  0  0999 V2000
  -35.9480    3.4664  -44.1723 N   0  0  0  0  0  0  0  0  0  0  0  0
  -37.0291    4.3869  -43.7977 C   0  0  0  0  0  0  0  0  0  0  0  0
  -36.6585    5.1099  -42.5008 C   0  0  0  0  0  0  0  0  0  0  0  0
  -35.3535    5.8833  -42.7079 C   0  0  0  0  0  0  0  0  0  0  0  0
  -34.2559    4.9088  -43.1442 C   0  0  0  0  0  0  0  0  0  0  0  0
  -34.6958    4.1916  -44.4226 C   0  0  0  0  0  0  0  0  0  0  0  0
  -34.9460    6.5589  -41.3971 C   0  0  0  0  0  0  0  0  0  0  0  0
  -33.6872    7.2956  -41.5956 C   0  0  0  0  0  0  0  0  0  0  0  0
  -32.7157    7.8643  -41.7487 N   0  0  0  0  0  0  0  0  0  0  0  0
  -36.0018    7.4953  -40.9787 C   0  0  0  0  0  0  0  0  0  0  0  0
  -36.8167    8.2179  -40.6558 N   0  0  0  0  0  0  0  0  0  0  0  0
  -36.3899    2.5211  -45.5270 X   0  0  0  0  0  0  0  0  0  0  0  0
  1  2  1  0  0  0  0
  1  6  1  0  0  0  0
  1 12  1  0  0  0  0
  2  3  1  0  0  0  0
  3  4  1  0  0  0  0
  4  5  1  0  0  0  0
  4  7  1  0  0  0  0
  5  6  1  0  0  0  0
  7  8  1  0  0  0  0
  7 10  1  0  0  0  0
  8  9  3  0  0  0  0
 10 11  3  0  0  0  0
M  END
> <Index>
20352

> <PropertyFieldDistance>
nan

$$$$
15725628
BBcorina  12272117083D 1   1.00000     0.00000 
CORINA 4.3.0 0026  30.10.2019
 13 15  0  0  0  0  0  0  0  0999 V2000
  -36.0173    3.5927  -44.4913 N   0  0  0  0  0  0  0  0  0  0  0  0
  -36.3933    2.1751  -44.5753 C   0  0  0  0  0  0  0  0  0  0  0  0
  -36.1059    1.6538  -45.9846 C   0  0  0  0  0  0  0  0  0  0  0  0
  -36.4927    0.1739  -46.0728 C   0  0  0  0  0  0  0  0  0  0  0  0
  -36.2413   -0.3285  -47.5287 C   0  0  0  0  0  0  0  0  0  0  0  0
  -34.7586   -0.1561  -47.8647 C   0  0  0  0  0  0  0  0  0  0  0  0
  -34.3604    1.3150  -47.7293 C   0  0  0  0  0  0  0  0  0  0  0  0
  -35.2104    2.1611  -48.6838 C   0  0  0  0  0  0  0  0  0  0  0  0
  -36.6847    2.0090  -48.2957 C   0  0  0  0  0  0  0  0  0  0  0  0
  -37.0917    0.5413  -48.4616 C   0  0  0  0  0  0  0  0  0  0  0  0
  -36.8633    2.4031  -46.9350 O   0  0  0  0  0  0  0  0  0  0  0  0
  -34.6120    1.7932  -46.2950 C   0  0  0  0  0  0  0  0  0  0  0  0
  -36.3230    4.2164  -42.9288 X   0  0  0  0  0  0  0  0  0  0  0  0
  1  2  1  0  0  0  0
  1 13  1  0  0  0  0
  2  3  1  0  0  0  0
  3  4  1  0  0  0  0
  3 11  1  0  0  0  0
  3 12  1  0  0  0  0
  4  5  1  0  0  0  0
  5  6  1  0  0  0  0
  5 10  1  0  0  0  0
  6  7  1  0  0  0  0
  7  8  1  0  0  0  0
  7 12  1  0  0  0  0
  8  9  1  0  0  0  0
  9 10  1  0  0  0  0
  9 11  1  0  0  0  0
M  END
> <Index>
20353

> <PropertyFieldDistance>
nan

$$$$
14928202
BBcorina  12272117083D 1   1.00000     0.00000 
CORINA 4.3.0 0026  30.10.2019
 11 11  0  0  0  0  0  0  0  0999 V2000
  -30.5584    5.2982  -43.6506 N   0  0  0  0  0  0  0  0  0  0  0  0
  -31.9677    5.2965  -44.0651 C   0  0  0  0  0  0  0  0  0  0  0  0
  -32.8588    5.0721  -42.8418 C   0  0  0  0  0  0  0  0  0  0  0  0
  -34.3266    5.0703  -43.2735 C   0  0  0  0  0  0  0  0  0  0  0  0
  -35.2263    4.9508  -42.0377 C   0  0  0  0  0  0  0  0  0  0  0  0
  -36.6807    5.1345  -42.4781 C   0  0  0  0  0  0  0  0  0  0  0  0
  -36.9693    4.2610  -43.6651 C   0  0  0  0  0  0  0  0  0  0  0  0
  -38.1280    4.0328  -43.9415 O   0  0  0  0  0  0  0  0  0  0  0  0
  -36.0200    3.7233  -44.4317 N   0  0  0  0  0  0  0  0  0  0  0  0
  -34.5907    3.8745  -44.1893 C   0  0  0  0  0  0  0  0  0  0  0  0
  -29.5258    5.5466  -44.9906 X   0  0  0  0  0  0  0  0  0  0  0  0
  1  2  1  0  0  0  0
  1 11  1  0  0  0  0
  2  3  1  0  0  0  0
  3  4  1  0  0  0  0
  4  5  1  0  0  0  0
  4 10  1  0  0  0  0
  5  6  1  0  0  0  0
  6  7  1  0  0  0  0
  7  8  2  0  0  0  0
  7  9  1  0  0  0  0
  9 10  1  0  0  0  0
M  END
> <Index>
20368

> <PropertyFieldDistance>
nan

$$$$
15265870
BBcorina  12272117083D 1   1.00000     0.00000 
CORINA 4.3.0 0026  30.10.2019
 12 13  0  0  0  0  0  0  0  0999 V2000
  -37.3090   -1.1149  -48.2466 C   0  0  0  0  0  0  0  0  0  0  0  0
  -36.5128    0.0790  -47.7159 C   0  0  0  0  0  0  0  0  0  0  0  0
  -37.1370    1.4472  -48.0825 C   0  0  0  0  0  0  0  0  0  0  0  0
  -36.8779    2.3375  -46.9900 O   0  0  0  0  0  0  0  0  0  0  0  0
  -36.1059    1.6538  -45.9847 C   0  0  0  0  0  0  0  0  0  0  0  0
  -36.3934    2.1751  -44.5752 C   0  0  0  0  0  0  0  0  0  0  0  0
  -36.0172    3.5927  -44.4913 N   0  0  0  0  0  0  0  0  0  0  0  0
  -36.4685    0.1533  -46.1456 C   0  0  0  0  0  0  0  0  0  0  0  0
  -35.0537    0.1040  -48.2086 C   0  0  0  0  0  0  0  0  0  0  0  0
  -34.4524    1.4686  -47.8524 C   0  0  0  0  0  0  0  0  0  0  0  0
  -34.6215    1.7911  -46.3666 C   0  0  0  0  0  0  0  0  0  0  0  0
  -36.3230    4.2163  -42.9287 X   0  0  0  0  0  0  0  0  0  0  0  0
  1  2  1  0  0  0  0
  2  3  1  0  0  0  0
  2  8  1  0  0  0  0
  2  9  1  0  0  0  0
  3  4  1  0  0  0  0
  4  5  1  0  0  0  0
  5  6  1  0  0  0  0
  5  8  1  0  0  0  0
  5 11  1  0  0  0  0
  6  7  1  0  0  0  0
  7 12  1  0  0  0  0
  9 10  1  0  0  0  0
 10 11  1  0  0  0  0
M  END
> <Index>
20371

> <PropertyFieldDistance>
nan

$$$$
16924760
BBcorina  12272117083D 1   1.00000     0.00000 
CORINA 4.3.0 0026  30.10.2019
 11 11  0  0  0  0  0  0  0  0999 V2000
  -34.0170    3.8796  -42.0377 C   0  0  0  0  0  0  0  0  0  0  0  0
  -34.2559    4.9088  -43.1443 C   0  0  0  0  0  0  0  0  0  0  0  0
  -32.9625    5.6813  -43.4113 C   0  0  0  0  0  0  0  0  0  0  0  0
  -35.3532    5.8831  -42.7071 C   0  0  0  0  0  0  0  0  0  0  0  0
  -36.6587    5.1099  -42.5007 C   0  0  0  0  0  0  0  0  0  0  0  0
  -37.7755    6.0849  -42.1226 C   0  0  0  0  0  0  0  0  0  0  0  0
  -38.9644    5.3526  -41.8187 O   0  0  0  0  0  0  0  0  0  0  0  0
  -37.0289    4.3869  -43.7977 C   0  0  0  0  0  0  0  0  0  0  0  0
  -35.9480    3.4664  -44.1724 N   0  0  0  0  0  0  0  0  0  0  0  0
  -34.6958    4.1916  -44.4227 C   0  0  0  0  0  0  0  0  0  0  0  0
  -36.3899    2.5210  -45.5270 X   0  0  0  0  0  0  0  0  0  0  0  0
  1  2  1  0  0  0  0
  2  3  1  0  0  0  0
  2  4  1  0  0  0  0
  2 10  1  0  0  0  0
  4  5  1  0  0  0  0
  5  6  1  0  0  0  0
  5  8  1  0  0  0  0
  6  7  1  0  0  0  0
  8  9  1  0  0  0  0
  9 10  1  0  0  0  0
  9 11  1  0  0  0  0
M  END
> <Index>
20381

> <PropertyFieldDistance>
nan

$$$$
12108764
BBcorina  12272117083D 1   1.00000     0.00000 
CORINA 4.3.0 0026  30.10.2019
  9  9  0  0  0  0  0  0  0  0999 V2000
  -34.0004    5.0583  -41.7601 C   0  0  0  0  0  0  0  0  0  0  0  0
  -35.1008    4.1840  -42.3647 C   0  0  0  0  0  0  0  0  0  0  0  0
  -36.4137    4.9932  -42.5334 C   0  0  0  0  0  0  0  0  0  0  0  0
  -37.1005    4.2362  -43.6974 C   0  0  0  0  0  0  0  0  0  0  0  0
  -35.9952    3.8462  -44.5984 N   0  0  0  0  0  0  0  0  0  0  0  0
  -34.7483    3.7874  -43.8138 C   0  0  0  0  0  0  0  0  0  0  0  0
  -35.3297    2.9873  -41.5386 C   0  0  0  0  0  0  0  0  0  0  0  0
  -35.5062    2.0639  -40.9011 N   0  0  0  0  0  0  0  0  0  0  0  0
  -36.3178    2.3444  -45.3497 X   0  0  0  0  0  0  0  0  0  0  0  0
  1  2  1  0  0  0  0
  2  3  1  0  0  0  0
  2  6  1  0  0  0  0
  2  7  1  0  0  0  0
  3  4  1  0  0  0  0
  4  5  1  0  0  0  0
  5  6  1  0  0  0  0
  5  9  1  0  0  0  0
  7  8  3  0  0  0  0
M  END
> <Index>
20385

> <PropertyFieldDistance>
nan

$$$$
16645284
BBcorina  12272117083D 1   1.00000     0.00000 
CORINA 4.3.0 0026  30.10.2019
  9 10  0  0  0  0  0  0  0  0999 V2000
  -36.3739    2.5392  -45.1522 C   0  0  0  0  0  0  0  0  0  0  0  0
  -36.0173    3.2387  -43.9105 N   0  0  0  0  0  0  0  0  0  0  0  0
  -36.9874    4.2983  -43.6063 C   0  0  0  0  0  0  0  0  0  0  0  0
  -36.5372    5.0224  -42.3323 C   0  0  0  0  0  0  0  0  0  0  0  0
  -35.3718    5.8559  -42.6540 N   0  0  0  0  0  0  0  0  0  0  0  0
  -34.3081    5.0807  -43.2898 C   0  0  0  0  0  0  0  0  0  0  0  0
  -33.8748    3.7553  -42.6742 C   0  0  0  0  0  0  0  0  0  0  0  0
  -34.6494    3.7653  -43.9779 C   0  0  0  0  0  0  0  0  0  0  0  0
  -34.7934    6.6640  -41.2624 X   0  0  0  0  0  0  0  0  0  0  0  0
  1  2  1  0  0  0  0
  2  3  1  0  0  0  0
  2  8  1  0  0  0  0
  3  4  1  0  0  0  0
  4  5  1  0  0  0  0
  5  6  1  0  0  0  0
  5  9  1  0  0  0  0
  6  7  1  0  0  0  0
  6  8  1  0  0  0  0
  7  8  1  0  0  0  0
M  END
> <Index>
20386

> <PropertyFieldDistance>
nan

$$$$
16767998
BBcorina  12272117083D 1   1.00000     0.00000 
CORINA 4.3.0 0026  30.10.2019
 11 12  0  0  0  0  0  0  0  0999 V2000
  -36.0173    3.5927  -44.4913 N   0  0  0  0  0  0  0  0  0  0  0  0
  -36.3933    2.1751  -44.5752 C   0  0  0  0  0  0  0  0  0  0  0  0
  -36.1059    1.6538  -45.9847 C   0  0  0  0  0  0  0  0  0  0  0  0
  -36.5396    0.2231  -46.3100 C   0  0  0  0  0  0  0  0  0  0  0  0
  -36.9827   -0.0626  -47.7535 C   0  0  0  0  0  0  0  0  0  0  0  0
  -36.4562   -1.4334  -48.1717 C   0  0  0  0  0  0  0  0  0  0  0  0
  -35.0938   -1.3264  -48.8279 C   0  0  0  0  0  0  0  0  0  0  0  0
  -34.0004   -0.9083  -47.8531 C   0  0  0  0  0  0  0  0  0  0  0  0
  -34.2081    0.5397  -47.4151 C   0  0  0  0  0  0  0  0  0  0  0  0
  -35.0498    0.5563  -46.1295 C   0  0  0  0  0  0  0  0  0  0  0  0
  -36.3230    4.2163  -42.9287 X   0  0  0  0  0  0  0  0  0  0  0  0
  1  2  1  0  0  0  0
  1 11  1  0  0  0  0
  2  3  1  0  0  0  0
  3  4  1  0  0  0  0
  3 10  1  0  0  0  0
  4  5  1  0  0  0  0
  4 10  1  0  0  0  0
  5  6  1  0  0  0  0
  6  7  1  0  0  0  0
  7  8  1  0  0  0  0
  8  9  1  0  0  0  0
  9 10  1  0  0  0  0
M  END
> <Index>
20388

> <PropertyFieldDistance>
nan

$$$$
15066122
BBcorina  12272117083D 1   1.00000     0.00000 
CORINA 4.3.0 0026  30.10.2019
 14 15  0  0  0  0  0  0  0  0999 V2000
  -35.2757   -0.1750  -48.1952 N   0  0  0  0  0  0  0  0  0  0  0  0
  -35.8838   -0.5724  -46.9184 C   0  0  0  0  0  0  0  0  0  0  0  0
  -36.3053    0.6586  -46.1581 C   0  0  0  0  0  0  0  0  0  0  0  0
  -37.4626    1.2478  -46.2306 N   0  0  0  0  0  0  0  0  0  0  0  0
  -37.4760    2.2681  -45.4471 N   0  0  0  0  0  0  0  0  0  0  0  0
  -36.3172    2.3656  -44.8423 C   0  0  0  0  0  0  0  0  0  0  0  0
  -35.5538    1.3453  -45.2754 O   0  0  0  0  0  0  0  0  0  0  0  0
  -35.9499    3.3327  -43.9251 N   0  0  0  0  0  0  0  0  0  0  0  0
  -37.0469    4.2807  -43.6921 C   0  0  0  0  0  0  0  0  0  0  0  0
  -36.6590    5.2458  -42.5696 C   0  0  0  0  0  0  0  0  0  0  0  0
  -35.3855    5.9976  -42.9667 C   0  0  0  0  0  0  0  0  0  0  0  0
  -34.2723    4.9853  -43.2507 C   0  0  0  0  0  0  0  0  0  0  0  0
  -34.7293    4.0277  -44.3535 C   0  0  0  0  0  0  0  0  0  0  0  0
  -34.7820   -1.5451  -49.0915 X   0  0  0  0  0  0  0  0  0  0  0  0
  1  2  1  0  0  0  0
  1 14  1  0  0  0  0
  2  3  1  0  0  0  0
  3  4  2  0  0  0  0
  3  7  1  0  0  0  0
  4  5  1  0  0  0  0
  5  6  2  0  0  0  0
  6  7  1  0  0  0  0
  6  8  1  0  0  0  0
  8  9  1  0  0  0  0
  8 13  1  0  0  0  0
  9 10  1  0  0  0  0
 10 11  1  0  0  0  0
 11 12  1  0  0  0  0
 12 13  1  0  0  0  0
M  END
> <Index>
20423

> <PropertyFieldDistance>
nan

$$$$
15101026
BBcorina  12272117083D 1   1.00000     0.00000 
CORINA 4.3.0 0026  30.10.2019
 12 13  0  0  0  0  0  0  0  0999 V2000
  -32.7868    5.0969  -44.2910 N   0  0  0  0  0  0  0  0  0  0  0  0
  -34.1699    4.6019  -44.2929 C   0  0  0  0  0  0  0  0  0  0  0  0
  -34.8905    5.1007  -43.0394 C   0  0  0  0  0  0  0  0  0  0  0  0
  -36.3293    4.5777  -43.0285 C   0  0  0  0  0  0  0  0  0  0  0  0
  -36.3085    3.0490  -43.0369 C   0  0  0  0  0  0  0  0  0  0  0  0
  -37.7366    2.5020  -43.0169 C   0  0  0  0  0  0  0  0  0  0  0  0
  -37.6925    1.0737  -43.0746 O   0  0  0  0  0  0  0  0  0  0  0  0
  -37.0742    0.5504  -44.2512 C   0  0  0  0  0  0  0  0  0  0  0  0
  -35.6220    1.0317  -44.3278 C   0  0  0  0  0  0  0  0  0  0  0  0
  -35.6044    2.5617  -44.3073 C   0  0  0  0  0  0  0  0  0  0  0  0
  -34.1630    3.0711  -44.3098 C   0  0  0  0  0  0  0  0  0  0  0  0
  -31.9060    4.4493  -42.9761 X   0  0  0  0  0  0  0  0  0  0  0  0
  1  2  1  0  0  0  0
  1 12  1  0  0  0  0
  2  3  1  0  0  0  0
  2 11  1  0  0  0  0
  3  4  1  0  0  0  0
  4  5  1  0  0  0  0
  5  6  1  0  0  0  0
  5 10  1  0  0  0  0
  6  7  1  0  0  0  0
  7  8  1  0  0  0  0
  8  9  1  0  0  0  0
  9 10  1  0  0  0  0
 10 11  1  0  0  0  0
M  END
> <Index>
20425

> <PropertyFieldDistance>
nan

$$$$
15066124
BBcorina  12272117083D 1   1.00000     0.00000 
CORINA 4.3.0 0026  30.10.2019
 12 12  0  0  0  0  0  0  0  0999 V2000
  -37.1890    3.0257  -48.1654 C   0  0  0  0  0  0  0  0  0  0  0  0
  -36.3394    2.9791  -47.0172 O   0  0  0  0  0  0  0  0  0  0  0  0
  -36.8272    2.1418  -45.9669 C   0  0  0  0  0  0  0  0  0  0  0  0
  -35.8433    2.1679  -44.7954 C   0  0  0  0  0  0  0  0  0  0  0  0
  -35.7905    3.5228  -44.2304 N   0  0  0  0  0  0  0  0  0  0  0  0
  -36.9270    3.7882  -43.4555 C   0  0  0  0  0  0  0  0  0  0  0  0
  -36.9841    5.2704  -43.0227 C   0  0  0  0  0  0  0  0  0  0  0  0
  -35.9965    5.4925  -41.9057 C   0  0  0  0  0  0  0  0  0  0  0  0
  -34.6709    5.9420  -42.3885 N   0  0  0  0  0  0  0  0  0  0  0  0
  -34.2063    5.2345  -43.5994 C   0  0  0  0  0  0  0  0  0  0  0  0
  -34.5070    3.7582  -43.5388 C   0  0  0  0  0  0  0  0  0  0  0  0
  -33.5032    5.8556  -41.1422 X   0  0  0  0  0  0  0  0  0  0  0  0
  1  2  1  0  0  0  0
  2  3  1  0  0  0  0
  3  4  1  0  0  0  0
  4  5  1  0  0  0  0
  5  6  1  0  0  0  0
  5 11  1  0  0  0  0
  6  7  1  0  0  0  0
  7  8  1  0  0  0  0
  8  9  1  0  0  0  0
  9 10  1  0  0  0  0
  9 12  1  0  0  0  0
 10 11  1  0  0  0  0
M  END
> <Index>
20426

> <PropertyFieldDistance>
nan

$$$$
15094494
BBcorina  12272117083D 1   1.00000     0.00000 
CORINA 4.3.0 0026  30.10.2019
  9  9  0  0  0  0  0  0  0  0999 V2000
  -32.6743    4.2883  -41.7789 C   0  0  0  0  0  0  0  0  0  0  0  0
  -33.9983    5.0547  -41.7586 C   0  0  0  0  0  0  0  0  0  0  0  0
  -35.1009    4.1840  -42.3647 C   0  0  0  0  0  0  0  0  0  0  0  0
  -35.3183    3.0466  -41.5796 F   0  0  0  0  0  0  0  0  0  0  0  0
  -36.4137    4.9932  -42.5334 C   0  0  0  0  0  0  0  0  0  0  0  0
  -37.1005    4.2362  -43.6974 C   0  0  0  0  0  0  0  0  0  0  0  0
  -35.9952    3.8462  -44.5984 N   0  0  0  0  0  0  0  0  0  0  0  0
  -34.7483    3.7874  -43.8138 C   0  0  0  0  0  0  0  0  0  0  0  0
  -36.3179    2.3444  -45.3498 X   0  0  0  0  0  0  0  0  0  0  0  0
  1  2  1  0  0  0  0
  2  3  1  0  0  0  0
  3  4  1  0  0  0  0
  3  5  1  0  0  0  0
  3  8  1  0  0  0  0
  5  6  1  0  0  0  0
  6  7  1  0  0  0  0
  7  8  1  0  0  0  0
  7  9  1  0  0  0  0
M  END
> <Index>
20451

> <PropertyFieldDistance>
nan

$$$$
13462192
BBcorina  12272117083D 1   1.00000     0.00000 
CORINA 4.3.0 0026  30.10.2019
 15 16  0  0  0  0  0  0  0  0999 V2000
  -38.4372   -0.3696  -46.0135 C   0  0  0  0  0  0  0  0  0  0  0  0
  -37.3713    0.5753  -45.6708 N   0  0  0  0  0  0  0  0  0  0  0  0
  -37.5130    1.7067  -44.9330 C   0  0  0  0  0  0  0  0  0  0  0  0
  -36.2934    2.2970  -44.8501 C   0  0  0  0  0  0  0  0  0  0  0  0
  -35.3800    1.4966  -45.5517 C   0  0  0  0  0  0  0  0  0  0  0  0
  -36.0248    0.4689  -46.0413 N   0  0  0  0  0  0  0  0  0  0  0  0
  -35.9968    3.4960  -44.1749 N   0  0  0  0  0  0  0  0  0  0  0  0
  -37.1063    4.2551  -43.6116 C   0  0  0  0  0  0  0  0  0  0  0  0
  -36.6022    5.2285  -42.5454 C   0  0  0  0  0  0  0  0  0  0  0  0
  -35.4413    6.0376  -43.1314 C   0  0  0  0  0  0  0  0  0  0  0  0
  -34.2575    5.0945  -43.3600 C   0  0  0  0  0  0  0  0  0  0  0  0
  -34.7185    3.8664  -44.0911 C   0  0  0  0  0  0  0  0  0  0  0  0
  -33.8835    3.1746  -44.6348 O   0  0  0  0  0  0  0  0  0  0  0  0
  -37.6885    6.1368  -42.1542 N   0  0  0  0  0  0  0  0  0  0  0  0
  -37.5152    6.6343  -40.5274 X   0  0  0  0  0  0  0  0  0  0  0  0
  1  2  1  0  0  0  0
  2  3  1  0  0  0  0
  2  6  1  0  0  0  0
  3  4  2  0  0  0  0
  4  5  1  0  0  0  0
  4  7  1  0  0  0  0
  5  6  2  0  0  0  0
  7  8  1  0  0  0  0
  7 12  1  0  0  0  0
  8  9  1  0  0  0  0
  9 10  1  0  0  0  0
  9 14  1  0  0  0  0
 10 11  1  0  0  0  0
 11 12  1  0  0  0  0
 12 13  2  0  0  0  0
 14 15  1  0  0  0  0
M  END
> <Index>
20457

> <PropertyFieldDistance>
nan

$$$$
14586364
BBcorina  12272117083D 1   1.00000     0.00000 
CORINA 4.3.0 0026  30.10.2019
 11 12  0  0  0  0  0  0  0  0999 V2000
  -32.1984    3.2430  -45.0972 Cl  0  0  0  0  0  0  0  0  0  0  0  0
  -33.9325    3.2810  -45.0269 C   0  0  0  0  0  0  0  0  0  0  0  0
  -34.8091    2.5784  -45.8656 C   0  0  0  0  0  0  0  0  0  0  0  0
  -36.0379    2.8611  -45.5059 N   0  0  0  0  0  0  0  0  0  0  0  0
  -35.9815    3.7472  -44.4315 N   0  0  0  0  0  0  0  0  0  0  0  0
  -37.0921    4.3455  -43.6840 C   0  0  0  0  0  0  0  0  0  0  0  0
  -36.5389    4.9005  -42.3653 C   0  0  0  0  0  0  0  0  0  0  0  0
  -35.3580    5.7332  -42.6338 N   0  0  0  0  0  0  0  0  0  0  0  0
  -34.2112    4.9094  -43.0554 C   0  0  0  0  0  0  0  0  0  0  0  0
  -34.6759    3.9906  -44.1577 C   0  0  0  0  0  0  0  0  0  0  0  0
  -35.7086    6.9366  -43.7970 X   0  0  0  0  0  0  0  0  0  0  0  0
  1  2  1  0  0  0  0
  2  3  1  0  0  0  0
  2 10  2  0  0  0  0
  3  4  2  0  0  0  0
  4  5  1  0  0  0  0
  5  6  1  0  0  0  0
  5 10  1  0  0  0  0
  6  7  1  0  0  0  0
  7  8  1  0  0  0  0
  8  9  1  0  0  0  0
  8 11  1  0  0  0  0
  9 10  1  0  0  0  0
M  END
> <Index>
20464

> <PropertyFieldDistance>
nan

$$$$
14586468
BBcorina  12272117083D 1   1.00000     0.00000 
CORINA 4.3.0 0026  30.10.2019
 12 13  0  0  0  0  0  0  0  0999 V2000
  -35.9540    3.4586  -44.1561 N   0  0  0  0  0  0  0  0  0  0  0  0
  -37.0273    4.4075  -43.8174 C   0  0  0  0  0  0  0  0  0  0  0  0
  -36.6644    5.0764  -42.4961 C   0  0  0  0  0  0  0  0  0  0  0  0
  -35.3525    5.8582  -42.6116 C   0  0  0  0  0  0  0  0  0  0  0  0
  -34.9339    6.2441  -41.2092 C   0  0  0  0  0  0  0  0  0  0  0  0
  -33.6283    7.0033  -41.0960 C   0  0  0  0  0  0  0  0  0  0  0  0
  -32.4320    6.0713  -41.2032 C   0  0  0  0  0  0  0  0  0  0  0  0
  -31.9775    5.9960  -42.6725 C   0  0  0  0  0  0  0  0  0  0  0  0
  -33.1268    5.8991  -43.6449 C   0  0  0  0  0  0  0  0  0  0  0  0
  -34.2280    4.9304  -43.1602 C   0  0  0  0  0  0  0  0  0  0  0  0
  -34.7137    4.1906  -44.4079 C   0  0  0  0  0  0  0  0  0  0  0  0
  -36.3856    2.5016  -45.5059 X   0  0  0  0  0  0  0  0  0  0  0  0
  1  2  1  0  0  0  0
  1 11  1  0  0  0  0
  1 12  1  0  0  0  0
  2  3  1  0  0  0  0
  3  4  1  0  0  0  0
  4  5  1  0  0  0  0
  4 10  1  0  0  0  0
  5  6  1  0  0  0  0
  6  7  1  0  0  0  0
  7  8  1  0  0  0  0
  8  9  1  0  0  0  0
  9 10  1  0  0  0  0
 10 11  1  0  0  0  0
M  END
> <Index>
20467

> <PropertyFieldDistance>
nan

$$$$
14598116
BBcorina  12272117083D 1   1.00000     0.00000 
CORINA 4.3.0 0026  30.10.2019
  9 10  0  0  0  0  0  0  0  0999 V2000
  -35.9587    3.7671  -44.4262 N   0  0  0  0  0  0  0  0  0  0  0  0
  -36.9934    4.6510  -43.8415 C   0  0  0  0  0  0  0  0  0  0  0  0
  -36.8199    4.5494  -42.3123 C   0  0  0  0  0  0  0  0  0  0  0  0
  -35.3320    4.0452  -42.1128 C   0  0  0  0  0  0  0  0  0  0  0  0
  -34.7763    3.8997  -43.5441 C   0  0  0  0  0  0  0  0  0  0  0  0
  -34.0391    5.1964  -43.9136 C   0  0  0  0  0  0  0  0  0  0  0  0
  -35.1220    6.6005  -43.5050 S   0  0  0  0  0  0  0  0  0  0  0  0
  -36.6945    6.0963  -44.2698 C   0  0  0  0  0  0  0  0  0  0  0  0
  -36.5085    2.1500  -44.5073 X   0  0  0  0  0  0  0  0  0  0  0  0
  1  2  1  0  0  0  0
  1  5  1  0  0  0  0
  1  9  1  0  0  0  0
  2  3  1  0  0  0  0
  2  8  1  0  0  0  0
  3  4  1  0  0  0  0
  4  5  1  0  0  0  0
  5  6  1  0  0  0  0
  6  7  1  0  0  0  0
  7  8  1  0  0  0  0
M  END
> <Index>
20468

> <PropertyFieldDistance>
nan

$$$$
14598414
BBcorina  12272117083D 1   1.00000     0.00000 
CORINA 4.3.0 0026  30.10.2019
 12 13  0  0  0  0  0  0  0  0999 V2000
  -35.0608    0.4259  -41.3025 N   0  0  0  0  0  0  0  0  0  0  0  0
  -35.8447    0.9480  -42.4298 C   0  0  0  0  0  0  0  0  0  0  0  0
  -36.4742    2.3158  -42.0521 C   0  0  0  0  0  0  0  0  0  0  0  0
  -35.8641    3.3068  -43.0338 C   0  0  0  0  0  0  0  0  0  0  0  0
  -36.5518    4.6179  -43.2642 C   0  0  0  0  0  0  0  0  0  0  0  0
  -35.4920    5.6036  -43.7993 C   0  0  0  0  0  0  0  0  0  0  0  0
  -35.4741    5.6002  -45.3209 C   0  0  0  0  0  0  0  0  0  0  0  0
  -35.5588    4.2323  -45.9850 C   0  0  0  0  0  0  0  0  0  0  0  0
  -34.6486    3.2146  -45.2711 C   0  0  0  0  0  0  0  0  0  0  0  0
  -35.4783    2.5107  -44.2340 C   0  0  0  0  0  0  0  0  0  0  0  0
  -34.9157    1.2090  -43.6495 C   0  0  0  0  0  0  0  0  0  0  0  0
  -35.0376   -1.2839  -41.3119 X   0  0  0  0  0  0  0  0  0  0  0  0
  1  2  1  0  0  0  0
  1 12  1  0  0  0  0
  2  3  1  0  0  0  0
  2 11  1  0  0  0  0
  3  4  1  0  0  0  0
  4  5  1  0  0  0  0
  4 10  1  0  0  0  0
  5  6  1  0  0  0  0
  6  7  1  0  0  0  0
  7  8  1  0  0  0  0
  8  9  1  0  0  0  0
  9 10  1  0  0  0  0
 10 11  1  0  0  0  0
M  END
> <Index>
20474

> <PropertyFieldDistance>
nan

$$$$
15432426
BBcorina  12272117083D 1   1.00000     0.00000 
CORINA 4.3.0 0026  30.10.2019
 12 12  0  0  0  0  0  0  0  0999 V2000
  -35.5548    6.9448  -43.7915 C   0  0  0  0  0  0  0  0  0  0  0  0
  -35.3535    5.8831  -42.7083 C   0  0  0  0  0  0  0  0  0  0  0  0
  -36.6587    5.1098  -42.5009 C   0  0  0  0  0  0  0  0  0  0  0  0
  -37.0292    4.3868  -43.7977 C   0  0  0  0  0  0  0  0  0  0  0  0
  -35.9483    3.4661  -44.1724 N   0  0  0  0  0  0  0  0  0  0  0  0
  -34.6961    4.1913  -44.4228 C   0  0  0  0  0  0  0  0  0  0  0  0
  -34.2549    4.9096  -43.1439 C   0  0  0  0  0  0  0  0  0  0  0  0
  -34.9466    6.5602  -41.3981 C   0  0  0  0  0  0  0  0  0  0  0  0
  -35.9524    7.4472  -40.9996 F   0  0  0  0  0  0  0  0  0  0  0  0
  -34.7629    5.5885  -40.4084 F   0  0  0  0  0  0  0  0  0  0  0  0
  -33.7525    7.2639  -41.5879 F   0  0  0  0  0  0  0  0  0  0  0  0
  -36.3903    2.5206  -45.5268 X   0  0  0  0  0  0  0  0  0  0  0  0
  1  2  1  0  0  0  0
  2  3  1  0  0  0  0
  2  7  1  0  0  0  0
  2  8  1  0  0  0  0
  3  4  1  0  0  0  0
  4  5  1  0  0  0  0
  5  6  1  0  0  0  0
  5 12  1  0  0  0  0
  6  7  1  0  0  0  0
  8  9  1  0  0  0  0
  8 10  1  0  0  0  0
  8 11  1  0  0  0  0
M  END
> <Index>
20484

> <PropertyFieldDistance>
nan

$$$$
14772336
BBcorina  12272117083D 1   1.00000     0.00000 
CORINA 4.3.0 0026  30.10.2019
 11 12  0  0  0  0  0  0  0  0999 V2000
  -35.9611    3.5806  -44.3434 N   0  0  0  0  0  0  0  0  0  0  0  0
  -37.0196    4.3133  -43.6629 C   0  0  0  0  0  0  0  0  0  0  0  0
  -36.6018    5.0825  -42.4233 C   0  0  0  0  0  0  0  0  0  0  0  0
  -35.3095    5.7046  -42.5653 N   0  0  0  0  0  0  0  0  0  0  0  0
  -34.3175    4.6988  -42.9534 C   0  0  0  0  0  0  0  0  0  0  0  0
  -34.6481    4.2466  -44.3791 C   0  0  0  0  0  0  0  0  0  0  0  0
  -34.6037    5.3565  -45.4215 C   0  0  0  0  0  0  0  0  0  0  0  0
  -35.9193    6.0717  -45.6529 C   0  0  0  0  0  0  0  0  0  0  0  0
  -36.3052    6.9886  -44.4844 C   0  0  0  0  0  0  0  0  0  0  0  0
  -35.3399    6.9557  -43.3028 C   0  0  0  0  0  0  0  0  0  0  0  0
  -36.4424    2.9947  -45.8722 X   0  0  0  0  0  0  0  0  0  0  0  0
  1  2  1  0  0  0  0
  1  6  1  0  0  0  0
  1 11  1  0  0  0  0
  2  3  1  0  0  0  0
  3  4  1  0  0  0  0
  4  5  1  0  0  0  0
  4 10  1  0  0  0  0
  5  6  1  0  0  0  0
  6  7  1  0  0  0  0
  7  8  1  0  0  0  0
  8  9  1  0  0  0  0
  9 10  1  0  0  0  0
M  END
> <Index>
20513

> <PropertyFieldDistance>
nan

$$$$
14585362
BBcorina  12272117083D 1   1.00000     0.00000 
CORINA 4.3.0 0026  30.10.2019
 11 11  0  0  0  0  0  0  0  0999 V2000
  -32.9630    5.6821  -43.4116 C   0  0  0  0  0  0  0  0  0  0  0  0
  -34.2558    4.9088  -43.1443 C   0  0  0  0  0  0  0  0  0  0  0  0
  -35.3534    5.8832  -42.7080 C   0  0  0  0  0  0  0  0  0  0  0  0
  -36.6587    5.1099  -42.5007 C   0  0  0  0  0  0  0  0  0  0  0  0
  -37.0290    4.3869  -43.7977 C   0  0  0  0  0  0  0  0  0  0  0  0
  -35.9479    3.4664  -44.1723 N   0  0  0  0  0  0  0  0  0  0  0  0
  -34.6959    4.1916  -44.4227 C   0  0  0  0  0  0  0  0  0  0  0  0
  -37.7587    6.0703  -42.1283 C   0  0  0  0  0  0  0  0  0  0  0  0
  -37.5223    7.2560  -42.0339 O   0  0  0  0  0  0  0  0  0  0  0  0
  -39.0053    5.6114  -41.9002 N   0  0  0  0  0  0  0  0  0  0  0  0
  -36.3898    2.5210  -45.5270 X   0  0  0  0  0  0  0  0  0  0  0  0
  1  2  1  0  0  0  0
  2  3  1  0  0  0  0
  2  7  1  0  0  0  0
  3  4  1  0  0  0  0
  4  5  1  0  0  0  0
  4  8  1  0  0  0  0
  5  6  1  0  0  0  0
  6  7  1  0  0  0  0
  6 11  1  0  0  0  0
  8  9  2  0  0  0  0
  8 10  1  0  0  0  0
M  END
> <Index>
20514

> <PropertyFieldDistance>
nan

$$$$
14592978
BBcorina  12272117083D 1   1.00000     0.00000 
CORINA 4.3.0 0026  30.10.2019
  9  9  0  0  0  0  0  0  0  0999 V2000
  -35.7368    1.4256  -45.4100 C   0  0  0  0  0  0  0  0  0  0  0  0
  -36.4632    2.7445  -45.3451 C   0  0  0  0  0  0  0  0  0  0  0  0
  -36.9344    3.2274  -46.3528 O   0  0  0  0  0  0  0  0  0  0  0  0
  -36.5889    3.3873  -44.1672 N   0  0  0  0  0  0  0  0  0  0  0  0
  -37.2008    4.6426  -43.7059 C   0  0  0  0  0  0  0  0  0  0  0  0
  -36.1722    4.6620  -42.5667 C   0  0  0  0  0  0  0  0  0  0  0  0
  -36.1804    3.1388  -42.7764 C   0  0  0  0  0  0  0  0  0  0  0  0
  -36.7149    5.0962  -41.2726 N   0  0  0  0  0  0  0  0  0  0  0  0
  -37.9001    4.0013  -40.7065 X   0  0  0  0  0  0  0  0  0  0  0  0
  1  2  1  0  0  0  0
  2  3  2  0  0  0  0
  2  4  1  0  0  0  0
  4  5  1  0  0  0  0
  4  7  1  0  0  0  0
  5  6  1  0  0  0  0
  6  7  1  0  0  0  0
  6  8  1  0  0  0  0
  8  9  1  0  0  0  0
M  END
> <Index>
20515

> <PropertyFieldDistance>
nan

$$$$
14792624
BBcorina  12272117083D 1   1.00000     0.00000 
CORINA 4.3.0 0026  30.10.2019
 12 13  0  0  0  0  0  0  0  0999 V2000
  -36.0173    3.5927  -44.4913 N   0  0  0  0  0  0  0  0  0  0  0  0
  -36.3933    2.1751  -44.5753 C   0  0  0  0  0  0  0  0  0  0  0  0
  -36.1059    1.6538  -45.9846 C   0  0  0  0  0  0  0  0  0  0  0  0
  -36.9317    2.4469  -47.0017 C   0  0  0  0  0  0  0  0  0  0  0  0
  -36.6855    1.8877  -48.4041 C   0  0  0  0  0  0  0  0  0  0  0  0
  -37.1379    0.4276  -48.4637 C   0  0  0  0  0  0  0  0  0  0  0  0
  -36.3157   -0.4015  -47.4727 C   0  0  0  0  0  0  0  0  0  0  0  0
  -36.4862    0.1771  -46.0697 C   0  0  0  0  0  0  0  0  0  0  0  0
  -35.8511   -0.6836  -44.9703 C   0  0  0  0  0  0  0  0  0  0  0  0
  -37.0906   -0.3639  -44.1170 C   0  0  0  0  0  0  0  0  0  0  0  0
  -37.8491   -0.1400  -45.4366 C   0  0  0  0  0  0  0  0  0  0  0  0
  -36.3230    4.2164  -42.9288 X   0  0  0  0  0  0  0  0  0  0  0  0
  1  2  1  0  0  0  0
  1 12  1  0  0  0  0
  2  3  1  0  0  0  0
  3  4  1  0  0  0  0
  3  8  1  0  0  0  0
  4  5  1  0  0  0  0
  5  6  1  0  0  0  0
  6  7  1  0  0  0  0
  7  8  1  0  0  0  0
  8  9  1  0  0  0  0
  8 11  1  0  0  0  0
  9 10  1  0  0  0  0
 10 11  1  0  0  0  0
M  END
> <Index>
20526

> <PropertyFieldDistance>
nan

$$$$
14772332
BBcorina  12272117083D 1   1.00000     0.00000 
CORINA 4.3.0 0026  30.10.2019
 11 11  0  0  0  0  0  0  0  0999 V2000
  -34.4295    6.2062  -42.5076 C   0  0  0  0  0  0  0  0  0  0  0  0
  -35.2040    4.8876  -42.4599 C   0  0  0  0  0  0  0  0  0  0  0  0
  -35.1256    4.3232  -41.1822 F   0  0  0  0  0  0  0  0  0  0  0  0
  -36.6808    5.1182  -42.8549 C   0  0  0  0  0  0  0  0  0  0  0  0
  -37.0109    3.8670  -43.7070 C   0  0  0  0  0  0  0  0  0  0  0  0
  -35.7540    3.6284  -44.4617 N   0  0  0  0  0  0  0  0  0  0  0  0
  -35.6888    2.2452  -44.9518 C   0  0  0  0  0  0  0  0  0  0  0  0
  -36.9667    1.9178  -45.7268 C   0  0  0  0  0  0  0  0  0  0  0  0
  -36.9015    0.5347  -46.2170 N   0  0  0  0  0  0  0  0  0  0  0  0
  -34.6547    3.9068  -43.5122 C   0  0  0  0  0  0  0  0  0  0  0  0
  -38.3136    0.1269  -47.0908 X   0  0  0  0  0  0  0  0  0  0  0  0
  1  2  1  0  0  0  0
  2  3  1  0  0  0  0
  2  4  1  0  0  0  0
  2 10  1  0  0  0  0
  4  5  1  0  0  0  0
  5  6  1  0  0  0  0
  6  7  1  0  0  0  0
  6 10  1  0  0  0  0
  7  8  1  0  0  0  0
  8  9  1  0  0  0  0
  9 11  1  0  0  0  0
M  END
> <Index>
20538

> <PropertyFieldDistance>
nan

$$$$
15425608
BBcorina  12272117083D 1   1.00000     0.00000 
CORINA 4.3.0 0026  30.10.2019
 12 13  0  0  0  0  0  0  0  0999 V2000
  -35.8839    2.8955  -45.1616 C   0  0  0  0  0  0  0  0  0  0  0  0
  -36.0756    3.3326  -43.7723 N   0  0  0  0  0  0  0  0  0  0  0  0
  -37.1821    4.3207  -43.6725 C   0  0  0  0  0  0  0  0  0  0  0  0
  -36.8911    5.0517  -42.3351 C   0  0  0  0  0  0  0  0  0  0  0  0
  -35.3459    5.1353  -42.3176 C   0  0  0  0  0  0  0  0  0  0  0  0
  -34.8776    4.0243  -43.2664 C   0  0  0  0  0  0  0  0  0  0  0  0
  -34.0644    4.6129  -44.4252 C   0  0  0  0  0  0  0  0  0  0  0  0
  -32.6655    3.9635  -44.3494 C   0  0  0  0  0  0  0  0  0  0  0  0
  -32.9025    2.6380  -43.5828 C   0  0  0  0  0  0  0  0  0  0  0  0
  -33.9621    3.0377  -42.5242 C   0  0  0  0  0  0  0  0  0  0  0  0
  -37.4844    6.3956  -42.3350 N   0  0  0  0  0  0  0  0  0  0  0  0
  -37.0747    7.2465  -43.7606 X   0  0  0  0  0  0  0  0  0  0  0  0
  1  2  1  0  0  0  0
  2  3  1  0  0  0  0
  2  6  1  0  0  0  0
  3  4  1  0  0  0  0
  4  5  1  0  0  0  0
  4 11  1  0  0  0  0
  5  6  1  0  0  0  0
  6  7  1  0  0  0  0
  6 10  1  0  0  0  0
  7  8  1  0  0  0  0
  8  9  1  0  0  0  0
  9 10  1  0  0  0  0
 11 12  1  0  0  0  0
M  END
> <Index>
20540

> <PropertyFieldDistance>
nan

$$$$
12113094
BBcorina  12272117083D 1   1.00000     0.00000 
CORINA 4.3.0 0026  30.10.2019
 17 18  0  0  0  0  0  0  0  0999 V2000
  -34.9256    6.4419  -41.5444 C   0  0  0  0  0  0  0  0  0  0  0  0
  -35.2841    5.5283  -42.6375 N   0  0  0  0  0  0  0  0  0  0  0  0
  -36.5871    4.8957  -42.3892 C   0  0  0  0  0  0  0  0  0  0  0  0
  -36.9597    4.0154  -43.5845 C   0  0  0  0  0  0  0  0  0  0  0  0
  -35.9154    3.0014  -43.7873 N   0  0  0  0  0  0  0  0  0  0  0  0
  -36.2739    2.0880  -44.8805 C   0  0  0  0  0  0  0  0  0  0  0  0
  -36.3164    2.8509  -46.1793 C   0  0  0  0  0  0  0  0  0  0  0  0
  -35.1827    2.9416  -46.9650 C   0  0  0  0  0  0  0  0  0  0  0  0
  -35.2216    3.6418  -48.1563 C   0  0  0  0  0  0  0  0  0  0  0  0
  -36.3944    4.2508  -48.5621 C   0  0  0  0  0  0  0  0  0  0  0  0
  -37.5268    4.1642  -47.7741 C   0  0  0  0  0  0  0  0  0  0  0  0
  -37.4890    3.4606  -46.5848 C   0  0  0  0  0  0  0  0  0  0  0  0
  -34.6125    3.6341  -44.0356 C   0  0  0  0  0  0  0  0  0  0  0  0
  -33.5474    2.5520  -44.2243 C   0  0  0  0  0  0  0  0  0  0  0  0
  -32.2730    3.1793  -44.5991 N   0  0  0  0  0  0  0  0  0  0  0  0
  -34.2397    4.5144  -42.8404 C   0  0  0  0  0  0  0  0  0  0  0  0
  -31.0196    2.0190  -44.6813 X   0  0  0  0  0  0  0  0  0  0  0  0
  1  2  1  0  0  0  0
  2  3  1  0  0  0  0
  2 16  1  0  0  0  0
  3  4  1  0  0  0  0
  4  5  1  0  0  0  0
  5  6  1  0  0  0  0
  5 13  1  0  0  0  0
  6  7  1  0  0  0  0
  7  8  2  0  0  0  0
  7 12  1  0  0  0  0
  8  9  1  0  0  0  0
  9 10  2  0  0  0  0
 10 11  1  0  0  0  0
 11 12  2  0  0  0  0
 13 14  1  0  0  0  0
 13 16  1  0  0  0  0
 14 15  1  0  0  0  0
 15 17  1  0  0  0  0
M  END
> <Index>
20570

> <PropertyFieldDistance>
nan

$$$$
14938622
BBcorina  12272117083D 1   1.00000     0.00000 
CORINA 4.3.0 0026  30.10.2019
 11 12  0  0  0  0  0  0  0  0999 V2000
  -38.9411    2.5385  -46.0869 N   0  0  0  0  0  0  0  0  0  0  0  0
  -37.9492    3.1135  -45.2836 C   0  0  0  0  0  0  0  0  0  0  0  0
  -38.1680    3.9340  -44.1616 C   0  0  0  0  0  0  0  0  0  0  0  0
  -36.9673    4.2801  -43.6672 C   0  0  0  0  0  0  0  0  0  0  0  0
  -36.6516    5.1455  -42.4722 C   0  0  0  0  0  0  0  0  0  0  0  0
  -35.2689    4.9500  -42.1421 O   0  0  0  0  0  0  0  0  0  0  0  0
  -34.3821    5.0650  -43.2584 C   0  0  0  0  0  0  0  0  0  0  0  0
  -34.5745    3.8681  -44.1991 C   0  0  0  0  0  0  0  0  0  0  0  0
  -36.0119    3.7049  -44.4408 N   0  0  0  0  0  0  0  0  0  0  0  0
  -36.6483    2.9785  -45.4448 N   0  0  0  0  0  0  0  0  0  0  0  0
  -38.5019    1.5616  -47.4199 X   0  0  0  0  0  0  0  0  0  0  0  0
  1  2  1  0  0  0  0
  1 11  1  0  0  0  0
  2  3  1  0  0  0  0
  2 10  2  0  0  0  0
  3  4  2  0  0  0  0
  4  5  1  0  0  0  0
  4  9  1  0  0  0  0
  5  6  1  0  0  0  0
  6  7  1  0  0  0  0
  7  8  1  0  0  0  0
  8  9  1  0  0  0  0
  9 10  1  0  0  0  0
M  END
> <Index>
20589

> <PropertyFieldDistance>
nan

$$$$
16504140
BBcorina  12272117083D 1   1.00000     0.00000 
CORINA 4.3.0 0026  30.10.2019
 14 16  0  0  0  0  0  0  0  0999 V2000
  -36.5761   -1.7229  -47.5633 O   0  0  0  0  0  0  0  0  0  0  0  0
  -36.2102   -0.3439  -47.4815 C   0  0  0  0  0  0  0  0  0  0  0  0
  -37.0227    0.4604  -48.4984 C   0  0  0  0  0  0  0  0  0  0  0  0
  -36.6310    1.9368  -48.4110 C   0  0  0  0  0  0  0  0  0  0  0  0
  -35.1394    2.0877  -48.7162 C   0  0  0  0  0  0  0  0  0  0  0  0
  -34.3268    1.2834  -47.6994 C   0  0  0  0  0  0  0  0  0  0  0  0
  -34.7186   -0.1931  -47.7868 C   0  0  0  0  0  0  0  0  0  0  0  0
  -36.4976    0.1774  -46.0722 C   0  0  0  0  0  0  0  0  0  0  0  0
  -36.1059    1.6538  -45.9846 C   0  0  0  0  0  0  0  0  0  0  0  0
  -36.3933    2.1751  -44.5753 C   0  0  0  0  0  0  0  0  0  0  0  0
  -36.0172    3.5927  -44.4913 N   0  0  0  0  0  0  0  0  0  0  0  0
  -36.9185    2.4581  -47.0014 C   0  0  0  0  0  0  0  0  0  0  0  0
  -34.6143    1.8046  -46.2899 C   0  0  0  0  0  0  0  0  0  0  0  0
  -36.3230    4.2163  -42.9287 X   0  0  0  0  0  0  0  0  0  0  0  0
  1  2  1  0  0  0  0
  2  3  1  0  0  0  0
  2  7  1  0  0  0  0
  2  8  1  0  0  0  0
  3  4  1  0  0  0  0
  4  5  1  0  0  0  0
  4 12  1  0  0  0  0
  5  6  1  0  0  0  0
  6  7  1  0  0  0  0
  6 13  1  0  0  0  0
  8  9  1  0  0  0  0
  9 10  1  0  0  0  0
  9 12  1  0  0  0  0
  9 13  1  0  0  0  0
 10 11  1  0  0  0  0
 11 14  1  0  0  0  0
M  END
> <Index>
20614

> <PropertyFieldDistance>
nan

$$$$
14174218
BBcorina  12272117083D 1   1.00000     0.00000 
CORINA 4.3.0 0026  30.10.2019
 14 15  0  0  0  0  0  0  0  0999 V2000
  -34.9723    6.8746  -41.8552 N   0  0  0  0  0  0  0  0  0  0  0  0
  -35.2424    5.4950  -42.2817 C   0  0  0  0  0  0  0  0  0  0  0  0
  -36.6961    5.3790  -42.7485 C   0  0  0  0  0  0  0  0  0  0  0  0
  -36.9542    3.9558  -43.2483 C   0  0  0  0  0  0  0  0  0  0  0  0
  -36.0397    3.6513  -44.3562 N   0  0  0  0  0  0  0  0  0  0  0  0
  -34.6388    3.7101  -43.9198 C   0  0  0  0  0  0  0  0  0  0  0  0
  -34.3115    5.1260  -43.4401 C   0  0  0  0  0  0  0  0  0  0  0  0
  -36.3344    2.4154  -44.9201 C   0  0  0  0  0  0  0  0  0  0  0  0
  -37.6183    2.1612  -45.3910 C   0  0  0  0  0  0  0  0  0  0  0  0
  -37.8966    0.9284  -45.9537 C   0  0  0  0  0  0  0  0  0  0  0  0
  -36.8803   -0.0154  -46.0177 C   0  0  0  0  0  0  0  0  0  0  0  0
  -35.6299    0.3029  -45.5267 C   0  0  0  0  0  0  0  0  0  0  0  0
  -35.3917    1.4887  -44.9992 N   0  0  0  0  0  0  0  0  0  0  0  0
  -33.7811    6.9148  -40.6292 X   0  0  0  0  0  0  0  0  0  0  0  0
  1  2  1  0  0  0  0
  1 14  1  0  0  0  0
  2  3  1  0  0  0  0
  2  7  1  0  0  0  0
  3  4  1  0  0  0  0
  4  5  1  0  0  0  0
  5  6  1  0  0  0  0
  5  8  1  0  0  0  0
  6  7  1  0  0  0  0
  8  9  2  0  0  0  0
  8 13  1  0  0  0  0
  9 10  1  0  0  0  0
 10 11  2  0  0  0  0
 11 12  1  0  0  0  0
 12 13  2  0  0  0  0
M  END
> <Index>
20633

> <PropertyFieldDistance>
nan

$$$$
7787922
BBcorina  12272117083D 1   1.00000     0.00000 
CORINA 4.3.0 0026  30.10.2019
 12 14  0  0  0  0  0  0  0  0999 V2000
  -36.0957    1.3438  -43.3365 N   0  0  0  0  0  0  0  0  0  0  0  0
  -36.5679    2.7048  -43.6242 C   0  0  0  0  0  0  0  0  0  0  0  0
  -36.2003    3.7274  -42.5384 C   0  0  0  0  0  0  0  0  0  0  0  0
  -35.7384    3.0965  -41.2125 C   0  0  0  0  0  0  0  0  0  0  0  0
  -34.2803    2.6760  -41.4589 C   0  0  0  0  0  0  0  0  0  0  0  0
  -33.9540    2.9890  -42.8150 O   0  0  0  0  0  0  0  0  0  0  0  0
  -34.8809    3.9641  -43.3147 C   0  0  0  0  0  0  0  0  0  0  0  0
  -35.6441    3.4910  -44.5548 C   0  0  0  0  0  0  0  0  0  0  0  0
  -34.9188    2.8068  -45.7138 C   0  0  0  0  0  0  0  0  0  0  0  0
  -36.0045    3.3977  -46.6314 C   0  0  0  0  0  0  0  0  0  0  0  0
  -36.2050    4.4926  -45.5678 C   0  0  0  0  0  0  0  0  0  0  0  0
  -34.5019    1.1137  -43.9118 X   0  0  0  0  0  0  0  0  0  0  0  0
  1  2  1  0  0  0  0
  1 12  1  0  0  0  0
  2  3  1  0  0  0  0
  2  8  1  0  0  0  0
  3  4  1  0  0  0  0
  3  7  1  0  0  0  0
  4  5  1  0  0  0  0
  5  6  1  0  0  0  0
  6  7  1  0  0  0  0
  7  8  1  0  0  0  0
  8  9  1  0  0  0  0
  8 11  1  0  0  0  0
  9 10  1  0  0  0  0
 10 11  1  0  0  0  0
M  END
> <Index>
20642

> <PropertyFieldDistance>
nan

$$$$
14935232
BBcorina  12272117083D 1   1.00000     0.00000 
CORINA 4.3.0 0026  30.10.2019
 12 12  0  0  0  0  0  0  0  0999 V2000
  -35.8174    6.5428  -40.2142 F   0  0  0  0  0  0  0  0  0  0  0  0
  -34.9267    6.4323  -41.2874 C   0  0  0  0  0  0  0  0  0  0  0  0
  -33.6171    6.3583  -40.8008 F   0  0  0  0  0  0  0  0  0  0  0  0
  -35.0537    7.5524  -42.1159 F   0  0  0  0  0  0  0  0  0  0  0  0
  -35.2460    5.1676  -42.0870 C   0  0  0  0  0  0  0  0  0  0  0  0
  -35.1164    4.0466  -41.2600 F   0  0  0  0  0  0  0  0  0  0  0  0
  -36.6792    5.2474  -42.6200 C   0  0  0  0  0  0  0  0  0  0  0  0
  -36.9728    4.0089  -43.4698 C   0  0  0  0  0  0  0  0  0  0  0  0
  -36.0190    3.9412  -44.5844 N   0  0  0  0  0  0  0  0  0  0  0  0
  -34.6395    3.8164  -44.0970 C   0  0  0  0  0  0  0  0  0  0  0  0
  -34.2768    5.0496  -43.2665 C   0  0  0  0  0  0  0  0  0  0  0  0
  -36.4108    2.6619  -45.6492 X   0  0  0  0  0  0  0  0  0  0  0  0
  1  2  1  0  0  0  0
  2  3  1  0  0  0  0
  2  4  1  0  0  0  0
  2  5  1  0  0  0  0
  5  6  1  0  0  0  0
  5  7  1  0  0  0  0
  5 11  1  0  0  0  0
  7  8  1  0  0  0  0
  8  9  1  0  0  0  0
  9 10  1  0  0  0  0
  9 12  1  0  0  0  0
 10 11  1  0  0  0  0
M  END
> <Index>
20661

> <PropertyFieldDistance>
nan

$$$$
15272066
BBcorina  12272117083D 1   1.00000     0.00000 
CORINA 4.3.0 0026  30.10.2019
 14 15  0  0  0  0  0  0  0  0999 V2000
  -37.5010    0.1962  -44.8339 N   0  0  0  0  0  0  0  0  0  0  0  0
  -37.9049   -0.0551  -46.1483 C   0  0  0  0  0  0  0  0  0  0  0  0
  -37.0126    0.6798  -47.1722 C   0  0  0  0  0  0  0  0  0  0  0  0
  -37.4089    2.1336  -47.2152 C   0  0  0  0  0  0  0  0  0  0  0  0
  -36.5713    3.0049  -46.2580 C   0  0  0  0  0  0  0  0  0  0  0  0
  -36.3427    2.3152  -44.9018 C   0  0  0  0  0  0  0  0  0  0  0  0
  -37.5864    1.6109  -44.4205 C   0  0  0  0  0  0  0  0  0  0  0  0
  -35.9484    3.3239  -43.9093 N   0  0  0  0  0  0  0  0  0  0  0  0
  -37.0377    4.2819  -43.6704 C   0  0  0  0  0  0  0  0  0  0  0  0
  -36.6072    5.2765  -42.5891 C   0  0  0  0  0  0  0  0  0  0  0  0
  -35.3979    5.9223  -42.9967 O   0  0  0  0  0  0  0  0  0  0  0  0
  -34.3158    5.0188  -43.2373 C   0  0  0  0  0  0  0  0  0  0  0  0
  -34.7230    4.0214  -44.3252 C   0  0  0  0  0  0  0  0  0  0  0  0
  -38.3321   -0.8150  -43.7335 X   0  0  0  0  0  0  0  0  0  0  0  0
  1  2  1  0  0  0  0
  1  7  1  0  0  0  0
  1 14  1  0  0  0  0
  2  3  1  0  0  0  0
  3  4  1  0  0  0  0
  4  5  1  0  0  0  0
  5  6  1  0  0  0  0
  6  7  1  0  0  0  0
  6  8  1  0  0  0  0
  8  9  1  0  0  0  0
  8 13  1  0  0  0  0
  9 10  1  0  0  0  0
 10 11  1  0  0  0  0
 11 12  1  0  0  0  0
 12 13  1  0  0  0  0
M  END
> <Index>
20678

> <PropertyFieldDistance>
nan

$$$$
15153690
BBcorina  12272117083D 1   1.00000     0.00000 
CORINA 4.3.0 0026  30.10.2019
 11 12  0  0  0  0  0  0  0  0999 V2000
  -35.9013    3.5746  -44.2756 N   0  0  0  0  0  0  0  0  0  0  0  0
  -37.0817    4.0545  -43.5330 C   0  0  0  0  0  0  0  0  0  0  0  0
  -36.8555    5.2954  -42.6737 C   0  0  0  0  0  0  0  0  0  0  0  0
  -35.7807    5.1824  -41.6081 C   0  0  0  0  0  0  0  0  0  0  0  0
  -35.7508    3.8082  -40.9912 C   0  0  0  0  0  0  0  0  0  0  0  0
  -35.1181    2.7600  -41.8826 C   0  0  0  0  0  0  0  0  0  0  0  0
  -33.8061    3.1803  -42.5410 C   0  0  0  0  0  0  0  0  0  0  0  0
  -33.9214    4.5894  -43.1633 C   0  0  0  0  0  0  0  0  0  0  0  0
  -34.3691    5.5511  -42.0623 C   0  0  0  0  0  0  0  0  0  0  0  0
  -34.8274    4.5496  -44.3921 C   0  0  0  0  0  0  0  0  0  0  0  0
  -36.3429    2.9519  -45.8060 X   0  0  0  0  0  0  0  0  0  0  0  0
  1  2  1  0  0  0  0
  1 10  1  0  0  0  0
  1 11  1  0  0  0  0
  2  3  1  0  0  0  0
  3  4  1  0  0  0  0
  4  5  1  0  0  0  0
  4  9  1  0  0  0  0
  5  6  1  0  0  0  0
  6  7  1  0  0  0  0
  7  8  1  0  0  0  0
  8  9  1  0  0  0  0
  8 10  1  0  0  0  0
M  END
> <Index>
20683

> <PropertyFieldDistance>
nan

$$$$
15101266
BBcorina  12272117083D 1   1.00000     0.00000 
CORINA 4.3.0 0026  30.10.2019
 10 11  0  0  0  0  0  0  0  0999 V2000
  -36.9169    5.2121  -42.3987 F   0  0  0  0  0  0  0  0  0  0  0  0
  -35.9339    4.2763  -42.7380 C   0  0  0  0  0  0  0  0  0  0  0  0
  -35.4520    4.5031  -44.1891 C   0  0  0  0  0  0  0  0  0  0  0  0
  -35.8018    3.1777  -44.9323 C   0  0  0  0  0  0  0  0  0  0  0  0
  -37.1244    2.7704  -44.1920 C   0  0  0  0  0  0  0  0  0  0  0  0
  -36.5295    2.8353  -42.7411 C   0  0  0  0  0  0  0  0  0  0  0  0
  -35.2877    1.9004  -42.8947 C   0  0  0  0  0  0  0  0  0  0  0  0
  -34.8087    2.1279  -44.3467 C   0  0  0  0  0  0  0  0  0  0  0  0
  -33.4386    2.6577  -44.3569 N   0  0  0  0  0  0  0  0  0  0  0  0
  -33.1649    3.6753  -43.0102 X   0  0  0  0  0  0  0  0  0  0  0  0
  1  2  1  0  0  0  0
  2  3  1  0  0  0  0
  2  6  1  0  0  0  0
  3  4  1  0  0  0  0
  4  5  1  0  0  0  0
  4  8  1  0  0  0  0
  5  6  1  0  0  0  0
  6  7  1  0  0  0  0
  7  8  1  0  0  0  0
  8  9  1  0  0  0  0
  9 10  1  0  0  0  0
M  END
> <Index>
20731

> <PropertyFieldDistance>
nan

$$$$
15066094
BBcorina  12272117083D 1   1.00000     0.00000 
CORINA 4.3.0 0026  30.10.2019
 10 10  0  0  0  0  0  0  0  0999 V2000
  -36.9046    0.6005  -46.1936 F   0  0  0  0  0  0  0  0  0  0  0  0
  -36.9667    1.9179  -45.7268 C   0  0  0  0  0  0  0  0  0  0  0  0
  -35.6888    2.2452  -44.9519 C   0  0  0  0  0  0  0  0  0  0  0  0
  -35.7540    3.6284  -44.4616 N   0  0  0  0  0  0  0  0  0  0  0  0
  -37.0109    3.8669  -43.7069 C   0  0  0  0  0  0  0  0  0  0  0  0
  -36.6808    5.1182  -42.8549 C   0  0  0  0  0  0  0  0  0  0  0  0
  -35.2040    4.8877  -42.4599 C   0  0  0  0  0  0  0  0  0  0  0  0
  -34.6546    3.9068  -43.5122 C   0  0  0  0  0  0  0  0  0  0  0  0
  -34.4604    6.1537  -42.5057 N   0  0  0  0  0  0  0  0  0  0  0  0
  -34.5945    6.8879  -44.0442 X   0  0  0  0  0  0  0  0  0  0  0  0
  1  2  1  0  0  0  0
  2  3  1  0  0  0  0
  3  4  1  0  0  0  0
  4  5  1  0  0  0  0
  4  8  1  0  0  0  0
  5  6  1  0  0  0  0
  6  7  1  0  0  0  0
  7  8  1  0  0  0  0
  7  9  1  0  0  0  0
  9 10  1  0  0  0  0
M  END
> <Index>
20733

> <PropertyFieldDistance>
nan

$$$$
15795696
BBcorina  12272117083D 1   1.00000     0.00000 
CORINA 4.3.0 0026  30.10.2019
  9 10  0  0  0  0  0  0  0  0999 V2000
  -35.9399    3.4716  -44.1489 N   0  0  0  0  0  0  0  0  0  0  0  0
  -37.0344    4.3876  -43.8032 C   0  0  0  0  0  0  0  0  0  0  0  0
  -36.7020    5.1028  -42.4880 C   0  0  0  0  0  0  0  0  0  0  0  0
  -35.3429    5.7858  -42.6332 C   0  0  0  0  0  0  0  0  0  0  0  0
  -34.2138    4.9021  -43.1615 C   0  0  0  0  0  0  0  0  0  0  0  0
  -34.6971    4.1994  -44.4361 C   0  0  0  0  0  0  0  0  0  0  0  0
  -35.3007    7.2185  -42.9016 N   0  0  0  0  0  0  0  0  0  0  0  0
  -35.0125    6.8903  -41.7397 N   0  0  0  0  0  0  0  0  0  0  0  0
  -36.3758    2.4626  -45.4588 X   0  0  0  0  0  0  0  0  0  0  0  0
  1  2  1  0  0  0  0
  1  6  1  0  0  0  0
  1  9  1  0  0  0  0
  2  3  1  0  0  0  0
  3  4  1  0  0  0  0
  4  5  1  0  0  0  0
  4  7  1  0  0  0  0
  4  8  1  0  0  0  0
  5  6  1  0  0  0  0
  7  8  2  0  0  0  0
M  END
> <Index>
20742

> <PropertyFieldDistance>
nan

$$$$
11566382
BBcorina  12272117083D 1   1.00000     0.00000 
CORINA 4.3.0 0026  30.10.2019
  9  9  0  0  0  0  0  0  0  0999 V2000
  -37.7448    4.1117  -43.8054 F   0  0  0  0  0  0  0  0  0  0  0  0
  -36.4291    4.5787  -43.8963 C   0  0  0  0  0  0  0  0  0  0  0  0
  -35.8091    4.1037  -45.2119 C   0  0  0  0  0  0  0  0  0  0  0  0
  -35.8115    2.5743  -45.2540 C   0  0  0  0  0  0  0  0  0  0  0  0
  -34.9951    2.0305  -44.0798 C   0  0  0  0  0  0  0  0  0  0  0  0
  -35.6151    2.5055  -42.7642 C   0  0  0  0  0  0  0  0  0  0  0  0
  -35.6127    4.0349  -42.7221 C   0  0  0  0  0  0  0  0  0  0  0  0
  -34.8312    1.9834  -41.6368 N   0  0  0  0  0  0  0  0  0  0  0  0
  -33.2433    2.6179  -41.6486 X   0  0  0  0  0  0  0  0  0  0  0  0
  1  2  1  0  0  0  0
  2  3  1  0  0  0  0
  2  7  1  0  0  0  0
  3  4  1  0  0  0  0
  4  5  1  0  0  0  0
  5  6  1  0  0  0  0
  6  7  1  0  0  0  0
  6  8  1  0  0  0  0
  8  9  1  0  0  0  0
M  END
> <Index>
20757

> <PropertyFieldDistance>
nan

$$$$
15427340
BBcorina  12272117083D 1   1.00000     0.00000 
CORINA 4.3.0 0026  30.10.2019
  9  9  0  0  0  0  0  0  0  0999 V2000
  -37.1638    4.8846  -41.2270 C   0  0  0  0  0  0  0  0  0  0  0  0
  -36.4271    5.0338  -42.5596 C   0  0  0  0  0  0  0  0  0  0  0  0
  -37.0854    4.1536  -43.6516 C   0  0  0  0  0  0  0  0  0  0  0  0
  -35.9828    3.9350  -44.6224 N   0  0  0  0  0  0  0  0  0  0  0  0
  -34.7625    3.7407  -43.8095 C   0  0  0  0  0  0  0  0  0  0  0  0
  -34.9961    4.4570  -42.4611 C   0  0  0  0  0  0  0  0  0  0  0  0
  -34.0675    5.4891  -42.2884 F   0  0  0  0  0  0  0  0  0  0  0  0
  -34.9119    3.5448  -41.4038 F   0  0  0  0  0  0  0  0  0  0  0  0
  -36.2907    2.5675  -45.6018 X   0  0  0  0  0  0  0  0  0  0  0  0
  1  2  1  0  0  0  0
  2  3  1  0  0  0  0
  2  6  1  0  0  0  0
  3  4  1  0  0  0  0
  4  5  1  0  0  0  0
  4  9  1  0  0  0  0
  5  6  1  0  0  0  0
  6  7  1  0  0  0  0
  6  8  1  0  0  0  0
M  END
> <Index>
20758

> <PropertyFieldDistance>
nan

$$$$
15272306
BBcorina  12272117083D 1   1.00000     0.00000 
CORINA 4.3.0 0026  30.10.2019
 10 11  0  0  0  0  0  0  0  0999 V2000
  -35.0575    6.3140  -41.3545 F   0  0  0  0  0  0  0  0  0  0  0  0
  -35.1647    5.1062  -42.0523 C   0  0  0  0  0  0  0  0  0  0  0  0
  -34.5514    4.0709  -41.3387 F   0  0  0  0  0  0  0  0  0  0  0  0
  -36.6490    4.7694  -42.3267 C   0  0  0  0  0  0  0  0  0  0  0  0
  -36.7673    4.7533  -43.8814 C   0  0  0  0  0  0  0  0  0  0  0  0
  -35.7384    5.8739  -44.2651 C   0  0  0  0  0  0  0  0  0  0  0  0
  -34.5362    5.2388  -43.4776 C   0  0  0  0  0  0  0  0  0  0  0  0
  -34.5911    3.7879  -44.0491 C   0  0  0  0  0  0  0  0  0  0  0  0
  -36.0436    3.5142  -44.3029 N   0  0  0  0  0  0  0  0  0  0  0  0
  -36.5985    2.1532  -43.4290 X   0  0  0  0  0  0  0  0  0  0  0  0
  1  2  1  0  0  0  0
  2  3  1  0  0  0  0
  2  4  1  0  0  0  0
  2  7  1  0  0  0  0
  4  5  1  0  0  0  0
  5  6  1  0  0  0  0
  5  9  1  0  0  0  0
  6  7  1  0  0  0  0
  7  8  1  0  0  0  0
  8  9  1  0  0  0  0
  9 10  1  0  0  0  0
M  END
> <Index>
20759

> <PropertyFieldDistance>
nan

$$$$
15366706
BBcorina  12272117083D 1   1.00000     0.00000 
CORINA 4.3.0 0026  30.10.2019
 11 11  0  0  0  0  0  0  0  0999 V2000
  -33.0405    7.8972  -39.7520 C   0  0  0  0  0  0  0  0  0  0  0  0
  -33.2289    6.3361  -40.6563 S   0  0  0  0  0  0  0  0  0  0  0  0
  -34.9268    6.4323  -41.2874 C   0  0  0  0  0  0  0  0  0  0  0  0
  -35.2462    5.1676  -42.0870 C   0  0  0  0  0  0  0  0  0  0  0  0
  -35.1048    3.9415  -41.1827 C   0  0  0  0  0  0  0  0  0  0  0  0
  -36.6793    5.2475  -42.6202 C   0  0  0  0  0  0  0  0  0  0  0  0
  -36.9723    4.0087  -43.4695 C   0  0  0  0  0  0  0  0  0  0  0  0
  -36.0192    3.9414  -44.5845 N   0  0  0  0  0  0  0  0  0  0  0  0
  -34.6396    3.8164  -44.0970 C   0  0  0  0  0  0  0  0  0  0  0  0
  -34.2769    5.0496  -43.2665 C   0  0  0  0  0  0  0  0  0  0  0  0
  -36.4110    2.6621  -45.6494 X   0  0  0  0  0  0  0  0  0  0  0  0
  1  2  1  0  0  0  0
  2  3  1  0  0  0  0
  3  4  1  0  0  0  0
  4  5  1  0  0  0  0
  4  6  1  0  0  0  0
  4 10  1  0  0  0  0
  6  7  1  0  0  0  0
  7  8  1  0  0  0  0
  8  9  1  0  0  0  0
  8 11  1  0  0  0  0
  9 10  1  0  0  0  0
M  END
> <Index>
20769

> <PropertyFieldDistance>
nan

$$$$
13467240
BBcorina  12272117083D 1   1.00000     0.00000 
CORINA 4.3.0 0026  30.10.2019
 10 11  0  0  0  0  0  0  0  0999 V2000
  -36.0173    3.5927  -44.4913 N   0  0  0  0  0  0  0  0  0  0  0  0
  -36.3933    2.1751  -44.5753 C   0  0  0  0  0  0  0  0  0  0  0  0
  -36.1059    1.6538  -45.9847 C   0  0  0  0  0  0  0  0  0  0  0  0
  -37.0334    2.3388  -47.0180 C   0  0  0  0  0  0  0  0  0  0  0  0
  -37.8502    1.1534  -47.6242 C   0  0  0  0  0  0  0  0  0  0  0  0
  -36.7494    0.0305  -47.6429 C   0  0  0  0  0  0  0  0  0  0  0  0
  -36.4800    0.1415  -46.0976 C   0  0  0  0  0  0  0  0  0  0  0  0
  -37.9205    0.0736  -45.5759 C   0  0  0  0  0  0  0  0  0  0  0  0
  -38.7100    0.6567  -46.4555 C   0  0  0  0  0  0  0  0  0  0  0  0
  -36.3230    4.2164  -42.9287 X   0  0  0  0  0  0  0  0  0  0  0  0
  1  2  1  0  0  0  0
  1 10  1  0  0  0  0
  2  3  1  0  0  0  0
  3  4  1  0  0  0  0
  3  7  1  0  0  0  0
  4  5  1  0  0  0  0
  5  6  1  0  0  0  0
  5  9  1  0  0  0  0
  6  7  1  0  0  0  0
  7  8  1  0  0  0  0
  8  9  2  0  0  0  0
M  END
> <Index>
20777

> <PropertyFieldDistance>
nan

$$$$
12910262
BBcorina  12272117083D 1   1.00000     0.00000 
CORINA 4.3.0 0026  30.10.2019
  8  9  0  0  0  0  0  0  0  0999 V2000
  -35.9734    3.7745  -44.5718 N   0  0  0  0  0  0  0  0  0  0  0  0
  -37.0523    4.4522  -43.8095 C   0  0  0  0  0  0  0  0  0  0  0  0
  -36.3917    4.8072  -42.4382 C   0  0  0  0  0  0  0  0  0  0  0  0
  -35.4635    3.5451  -42.2704 C   0  0  0  0  0  0  0  0  0  0  0  0
  -34.7797    3.7757  -43.6669 C   0  0  0  0  0  0  0  0  0  0  0  0
  -34.3903    5.2540  -43.5513 C   0  0  0  0  0  0  0  0  0  0  0  0
  -35.3146    5.8711  -42.8412 C   0  0  0  0  0  0  0  0  0  0  0  0
  -35.6386    4.6041  -46.0291 X   0  0  0  0  0  0  0  0  0  0  0  0
  1  2  1  0  0  0  0
  1  5  1  0  0  0  0
  1  8  1  0  0  0  0
  2  3  1  0  0  0  0
  3  4  1  0  0  0  0
  3  7  1  0  0  0  0
  4  5  1  0  0  0  0
  5  6  1  0  0  0  0
  6  7  2  0  0  0  0
M  END
> <Index>
20779

> <PropertyFieldDistance>
nan

$$$$
13166286
BBcorina  12272117083D 1   1.00000     0.00000 
CORINA 4.3.0 0026  30.10.2019
  8  8  0  0  0  0  0  0  0  0999 V2000
  -34.1168    4.1610  -43.4095 C   0  0  0  0  0  0  0  0  0  0  0  0
  -35.2089    3.6904  -44.3722 C   0  0  0  0  0  0  0  0  0  0  0  0
  -36.5036    4.5068  -44.1629 C   0  0  0  0  0  0  0  0  0  0  0  0
  -37.5738    3.5533  -44.3399 O   0  0  0  0  0  0  0  0  0  0  0  0
  -37.1218    2.3481  -43.6847 C   0  0  0  0  0  0  0  0  0  0  0  0
  -35.6250    2.2376  -44.0504 C   0  0  0  0  0  0  0  0  0  0  0  0
  -34.8537    1.7215  -42.9118 N   0  0  0  0  0  0  0  0  0  0  0  0
  -35.0334    0.0271  -42.7675 X   0  0  0  0  0  0  0  0  0  0  0  0
  1  2  1  0  0  0  0
  2  3  1  0  0  0  0
  2  6  1  0  0  0  0
  3  4  1  0  0  0  0
  4  5  1  0  0  0  0
  5  6  1  0  0  0  0
  6  7  1  0  0  0  0
  7  8  1  0  0  0  0
M  END
> <Index>
20783

> <PropertyFieldDistance>
nan

$$$$
14786646
BBcorina  12272117083D 1   1.00000     0.00000 
CORINA 4.3.0 0026  30.10.2019
  9  9  0  0  0  0  0  0  0  0999 V2000
  -35.5319    1.2334  -44.4520 N   0  0  0  0  0  0  0  0  0  0  0  0
  -36.0938    2.4001  -44.8253 C   0  0  0  0  0  0  0  0  0  0  0  0
  -36.2698    2.6405  -46.0041 O   0  0  0  0  0  0  0  0  0  0  0  0
  -36.4606    3.3006  -43.8920 N   0  0  0  0  0  0  0  0  0  0  0  0
  -37.0835    4.6379  -43.9333 C   0  0  0  0  0  0  0  0  0  0  0  0
  -36.4131    4.8773  -42.5683 C   0  0  0  0  0  0  0  0  0  0  0  0
  -36.4007    3.3455  -42.4146 C   0  0  0  0  0  0  0  0  0  0  0  0
  -37.2768    5.5622  -41.5973 N   0  0  0  0  0  0  0  0  0  0  0  0
  -38.6654    4.6278  -41.2462 X   0  0  0  0  0  0  0  0  0  0  0  0
  1  2  1  0  0  0  0
  2  3  2  0  0  0  0
  2  4  1  0  0  0  0
  4  5  1  0  0  0  0
  4  7  1  0  0  0  0
  5  6  1  0  0  0  0
  6  7  1  0  0  0  0
  6  8  1  0  0  0  0
  8  9  1  0  0  0  0
M  END
> <Index>
20788

> <PropertyFieldDistance>
nan

$$$$
15345418
BBcorina  12272117083D 1   1.00000     0.00000 
CORINA 4.3.0 0026  30.10.2019
  9 10  0  0  0  0  0  0  0  0999 V2000
  -36.0231    3.9367  -44.5811 N   0  0  0  0  0  0  0  0  0  0  0  0
  -36.9399    3.9946  -43.4361 C   0  0  0  0  0  0  0  0  0  0  0  0
  -36.6987    5.2796  -42.6410 C   0  0  0  0  0  0  0  0  0  0  0  0
  -35.2693    5.2650  -42.0839 C   0  0  0  0  0  0  0  0  0  0  0  0
  -34.3002    5.0217  -43.2401 C   0  0  0  0  0  0  0  0  0  0  0  0
  -34.6255    3.8310  -44.1394 C   0  0  0  0  0  0  0  0  0  0  0  0
  -33.5910    6.1611  -43.8121 N   0  0  0  0  0  0  0  0  0  0  0  0
  -32.9068    5.4245  -43.0839 N   0  0  0  0  0  0  0  0  0  0  0  0
  -36.4302    2.6470  -45.6275 X   0  0  0  0  0  0  0  0  0  0  0  0
  1  2  1  0  0  0  0
  1  6  1  0  0  0  0
  1  9  1  0  0  0  0
  2  3  1  0  0  0  0
  3  4  1  0  0  0  0
  4  5  1  0  0  0  0
  5  6  1  0  0  0  0
  5  7  1  0  0  0  0
  5  8  1  0  0  0  0
  7  8  2  0  0  0  0
M  END
> <Index>
20794

> <PropertyFieldDistance>
nan

$$$$
15066056
BBcorina  12272117083D 1   1.00000     0.00000 
CORINA 4.3.0 0026  30.10.2019
 12 13  0  0  0  0  0  0  0  0999 V2000
  -36.0664    2.3250  -44.0547 C   0  0  0  0  0  0  0  0  0  0  0  0
  -36.0649    3.7035  -44.5362 N   0  0  0  0  0  0  0  0  0  0  0  0
  -37.0851    4.5381  -43.8868 C   0  0  0  0  0  0  0  0  0  0  0  0
  -36.7213    4.8881  -42.4827 C   0  0  0  0  0  0  0  0  0  0  0  0
  -35.2821    5.3164  -42.3057 C   0  0  0  0  0  0  0  0  0  0  0  0
  -34.2751    4.4861  -43.1012 C   0  0  0  0  0  0  0  0  0  0  0  0
  -34.7618    4.2969  -44.5716 C   0  0  0  0  0  0  0  0  0  0  0  0
  -34.7089    5.6513  -45.2668 C   0  0  0  0  0  0  0  0  0  0  0  0
  -35.2388    6.7197  -44.4421 N   0  0  0  0  0  0  0  0  0  0  0  0
  -36.6853    6.9833  -44.4984 C   0  0  0  0  0  0  0  0  0  0  0  0
  -37.5288    5.7326  -44.7178 C   0  0  0  0  0  0  0  0  0  0  0  0
  -34.3369    8.1604  -44.6324 X   0  0  0  0  0  0  0  0  0  0  0  0
  1  2  1  0  0  0  0
  2  3  1  0  0  0  0
  2  7  1  0  0  0  0
  3  4  1  0  0  0  0
  3 11  1  0  0  0  0
  4  5  1  0  0  0  0
  5  6  1  0  0  0  0
  6  7  1  0  0  0  0
  7  8  1  0  0  0  0
  8  9  1  0  0  0  0
  9 10  1  0  0  0  0
  9 12  1  0  0  0  0
 10 11  1  0  0  0  0
M  END
> <Index>
20795

> <PropertyFieldDistance>
nan

$$$$
16792040
BBcorina  12272117083D 1   1.00000     0.00000 
CORINA 4.3.0 0026  30.10.2019
 10 10  0  0  0  0  0  0  0  0999 V2000
  -37.4754    6.1124  -41.9373 C   0  0  0  0  0  0  0  0  0  0  0  0
  -36.6505    4.9002  -42.3741 C   0  0  0  0  0  0  0  0  0  0  0  0
  -36.9648    4.5723  -43.8350 C   0  0  0  0  0  0  0  0  0  0  0  0
  -36.0067    3.5603  -44.3089 N   0  0  0  0  0  0  0  0  0  0  0  0
  -34.6621    4.1436  -44.4094 C   0  0  0  0  0  0  0  0  0  0  0  0
  -34.3121    4.8500  -43.1304 C   0  0  0  0  0  0  0  0  0  0  0  0
  -33.1485    5.1127  -42.9113 O   0  0  0  0  0  0  0  0  0  0  0  0
  -35.2298    5.2017  -42.2237 N   0  0  0  0  0  0  0  0  0  0  0  0
  -34.7902    5.9217  -41.0259 C   0  0  0  0  0  0  0  0  0  0  0  0
  -36.0056    2.1906  -43.2852 X   0  0  0  0  0  0  0  0  0  0  0  0
  1  2  1  0  0  0  0
  2  3  1  0  0  0  0
  2  8  1  0  0  0  0
  3  4  1  0  0  0  0
  4  5  1  0  0  0  0
  4 10  1  0  0  0  0
  5  6  1  0  0  0  0
  6  7  2  0  0  0  0
  6  8  1  0  0  0  0
  8  9  1  0  0  0  0
M  END
> <Index>
20796

> <PropertyFieldDistance>
nan

$$$$
15091118
BBcorina  12272117083D 1   1.00000     0.00000 
CORINA 4.3.0 0026  30.10.2019
 11 12  0  0  0  0  0  0  0  0999 V2000
  -38.3470    6.7692  -43.2375 O   0  0  0  0  0  0  0  0  0  0  0  0
  -37.6836    6.1405  -42.1390 C   0  0  0  0  0  0  0  0  0  0  0  0
  -37.4507    6.9791  -40.8806 C   0  0  0  0  0  0  0  0  0  0  0  0
  -38.5061    5.8713  -40.8764 C   0  0  0  0  0  0  0  0  0  0  0  0
  -36.6102    5.1169  -42.5144 C   0  0  0  0  0  0  0  0  0  0  0  0
  -37.0250    4.3873  -43.7948 C   0  0  0  0  0  0  0  0  0  0  0  0
  -35.9554    3.4605  -44.1930 N   0  0  0  0  0  0  0  0  0  0  0  0
  -34.6941    4.1836  -44.4110 C   0  0  0  0  0  0  0  0  0  0  0  0
  -34.3026    4.9152  -43.1244 C   0  0  0  0  0  0  0  0  0  0  0  0
  -35.3666    5.7879  -42.7347 O   0  0  0  0  0  0  0  0  0  0  0  0
  -36.4009    2.5722  -45.5846 X   0  0  0  0  0  0  0  0  0  0  0  0
  1  2  1  0  0  0  0
  2  3  1  0  0  0  0
  2  4  1  0  0  0  0
  2  5  1  0  0  0  0
  3  4  1  0  0  0  0
  5  6  1  0  0  0  0
  5 10  1  0  0  0  0
  6  7  1  0  0  0  0
  7  8  1  0  0  0  0
  7 11  1  0  0  0  0
  8  9  1  0  0  0  0
  9 10  1  0  0  0  0
M  END
> <Index>
20799

> <PropertyFieldDistance>
nan

$$$$
15066062
BBcorina  12272117083D 1   1.00000     0.00000 
CORINA 4.3.0 0026  30.10.2019
  8  8  0  0  0  0  0  0  0  0999 V2000
  -35.7126    1.6584  -45.7031 C   0  0  0  0  0  0  0  0  0  0  0  0
  -36.7563    2.3585  -44.8307 C   0  0  0  0  0  0  0  0  0  0  0  0
  -36.2122    3.6332  -44.3438 N   0  0  0  0  0  0  0  0  0  0  0  0
  -37.2656    4.4475  -43.6984 C   0  0  0  0  0  0  0  0  0  0  0  0
  -36.2152    4.7643  -42.6187 C   0  0  0  0  0  0  0  0  0  0  0  0
  -35.5262    3.4555  -43.0450 C   0  0  0  0  0  0  0  0  0  0  0  0
  -36.7468    4.7340  -41.2496 N   0  0  0  0  0  0  0  0  0  0  0  0
  -37.3789    3.1906  -40.8718 X   0  0  0  0  0  0  0  0  0  0  0  0
  1  2  1  0  0  0  0
  2  3  1  0  0  0  0
  3  4  1  0  0  0  0
  3  6  1  0  0  0  0
  4  5  1  0  0  0  0
  5  6  1  0  0  0  0
  5  7  1  0  0  0  0
  7  8  1  0  0  0  0
M  END
> <Index>
20803

> <PropertyFieldDistance>
nan

$$$$
16792840
BBcorina  12272117083D 1   1.00000     0.00000 
CORINA 4.3.0 0026  30.10.2019
 11 12  0  0  0  0  0  0  0  0999 V2000
  -38.3065    3.5491  -43.5238 C   0  0  0  0  0  0  0  0  0  0  0  0
  -37.0412    4.3677  -43.7874 C   0  0  0  0  0  0  0  0  0  0  0  0
  -35.9461    3.4672  -44.1762 N   0  0  0  0  0  0  0  0  0  0  0  0
  -34.7064    4.2139  -44.4234 C   0  0  0  0  0  0  0  0  0  0  0  0
  -34.2455    4.8933  -43.1320 C   0  0  0  0  0  0  0  0  0  0  0  0
  -35.3261    5.8742  -42.6635 C   0  0  0  0  0  0  0  0  0  0  0  0
  -36.6481    5.1215  -42.5186 C   0  0  0  0  0  0  0  0  0  0  0  0
  -36.7301    4.2674  -41.2475 C   0  0  0  0  0  0  0  0  0  0  0  0
  -38.1908    4.7353  -41.1260 C   0  0  0  0  0  0  0  0  0  0  0  0
  -37.7801    5.9769  -41.9366 C   0  0  0  0  0  0  0  0  0  0  0  0
  -36.3786    2.5293  -45.5390 X   0  0  0  0  0  0  0  0  0  0  0  0
  1  2  1  0  0  0  0
  2  3  1  0  0  0  0
  2  7  1  0  0  0  0
  3  4  1  0  0  0  0
  3 11  1  0  0  0  0
  4  5  1  0  0  0  0
  5  6  1  0  0  0  0
  6  7  1  0  0  0  0
  7  8  1  0  0  0  0
  7 10  1  0  0  0  0
  8  9  1  0  0  0  0
  9 10  1  0  0  0  0
M  END
> <Index>
20808

> <PropertyFieldDistance>
nan

$$$$
15545460
BBcorina  12272117083D 1   1.00000     0.00000 
CORINA 4.3.0 0026  30.10.2019
 11 11  0  0  0  0  0  0  0  0999 V2000
  -35.0708    2.8240  -46.5269 O   0  0  0  0  0  0  0  0  0  0  0  0
  -36.3175    2.3435  -46.0201 C   0  0  0  0  0  0  0  0  0  0  0  0
  -36.1636    1.9885  -44.5398 C   0  0  0  0  0  0  0  0  0  0  0  0
  -35.8754    3.2070  -43.7715 N   0  0  0  0  0  0  0  0  0  0  0  0
  -37.0207    4.1259  -43.7932 C   0  0  0  0  0  0  0  0  0  0  0  0
  -36.7417    5.3123  -42.8675 C   0  0  0  0  0  0  0  0  0  0  0  0
  -35.4756    6.0337  -43.3380 C   0  0  0  0  0  0  0  0  0  0  0  0
  -34.3086    5.0426  -43.3526 C   0  0  0  0  0  0  0  0  0  0  0  0
  -34.6580    3.8640  -44.2642 C   0  0  0  0  0  0  0  0  0  0  0  0
  -33.1027    5.7124  -43.8577 N   0  0  0  0  0  0  0  0  0  0  0  0
  -32.2154    6.4222  -42.5798 X   0  0  0  0  0  0  0  0  0  0  0  0
  1  2  1  0  0  0  0
  2  3  1  0  0  0  0
  3  4  1  0  0  0  0
  4  5  1  0  0  0  0
  4  9  1  0  0  0  0
  5  6  1  0  0  0  0
  6  7  1  0  0  0  0
  7  8  1  0  0  0  0
  8  9  1  0  0  0  0
  8 10  1  0  0  0  0
 10 11  1  0  0  0  0
M  END
> <Index>
20809

> <PropertyFieldDistance>
nan

$$$$
14727236
BBcorina  12272117083D 1   1.00000     0.00000 
CORINA 4.3.0 0026  30.10.2019
 10 10  0  0  0  0  0  0  0  0999 V2000
  -34.9694    4.7552  -39.1884 C   0  0  0  0  0  0  0  0  0  0  0  0
  -35.9690    5.3254  -40.1969 C   0  0  0  0  0  0  0  0  0  0  0  0
  -35.6860    4.7402  -41.5820 C   0  0  0  0  0  0  0  0  0  0  0  0
  -36.7958    5.1469  -42.5173 C   0  0  0  0  0  0  0  0  0  0  0  0
  -37.0167    4.0277  -43.5577 C   0  0  0  0  0  0  0  0  0  0  0  0
  -36.0040    4.0244  -44.5310 N   0  0  0  0  0  0  0  0  0  0  0  0
  -34.6477    3.7854  -44.0001 C   0  0  0  0  0  0  0  0  0  0  0  0
  -34.1231    5.0791  -43.4317 C   0  0  0  0  0  0  0  0  0  0  0  0
  -34.3890    5.1925  -42.0217 O   0  0  0  0  0  0  0  0  0  0  0  0
  -36.3700    2.9294  -45.7924 X   0  0  0  0  0  0  0  0  0  0  0  0
  1  2  1  0  0  0  0
  2  3  1  0  0  0  0
  3  4  1  0  0  0  0
  3  9  1  0  0  0  0
  4  5  1  0  0  0  0
  5  6  1  0  0  0  0
  6  7  1  0  0  0  0
  6 10  1  0  0  0  0
  7  8  1  0  0  0  0
  8  9  1  0  0  0  0
M  END
> <Index>
20817

> <PropertyFieldDistance>
nan

$$$$
14724838
BBcorina  12272117083D 1   1.00000     0.00000 
CORINA 4.3.0 0026  30.10.2019
 13 14  0  0  0  0  0  0  0  0999 V2000
  -36.3482    2.3368  -44.9317 C   0  0  0  0  0  0  0  0  0  0  0  0
  -36.0419    3.6586  -44.3687 N   0  0  0  0  0  0  0  0  0  0  0  0
  -36.9558    3.9855  -43.2643 C   0  0  0  0  0  0  0  0  0  0  0  0
  -36.6380    5.3903  -42.7452 C   0  0  0  0  0  0  0  0  0  0  0  0
  -35.2660    5.4474  -42.3461 O   0  0  0  0  0  0  0  0  0  0  0  0
  -34.3476    5.1358  -43.3974 C   0  0  0  0  0  0  0  0  0  0  0  0
  -34.6432    3.7307  -43.9258 C   0  0  0  0  0  0  0  0  0  0  0  0
  -34.4040    2.7053  -42.8143 C   0  0  0  0  0  0  0  0  0  0  0  0
  -33.0154    2.7045  -42.4705 O   0  0  0  0  0  0  0  0  0  0  0  0
  -32.1488    2.3997  -43.5653 C   0  0  0  0  0  0  0  0  0  0  0  0
  -32.3242    3.4009  -44.6262 N   0  0  0  0  0  0  0  0  0  0  0  0
  -33.7151    3.4210  -45.1032 C   0  0  0  0  0  0  0  0  0  0  0  0
  -31.2376    3.1229  -45.9169 X   0  0  0  0  0  0  0  0  0  0  0  0
  1  2  1  0  0  0  0
  2  3  1  0  0  0  0
  2  7  1  0  0  0  0
  3  4  1  0  0  0  0
  4  5  1  0  0  0  0
  5  6  1  0  0  0  0
  6  7  1  0  0  0  0
  7  8  1  0  0  0  0
  7 12  1  0  0  0  0
  8  9  1  0  0  0  0
  9 10  1  0  0  0  0
 10 11  1  0  0  0  0
 11 12  1  0  0  0  0
 11 13  1  0  0  0  0
M  END
> <Index>
20820

> <PropertyFieldDistance>
nan

$$$$
15065994
BBcorina  12272117083D 1   1.00000     0.00000 
CORINA 4.3.0 0026  30.10.2019
 12 14  0  0  0  0  0  0  0  0999 V2000
  -35.8922    3.6042  -44.6902 N   0  0  0  0  0  0  0  0  0  0  0  0
  -37.0284    4.3097  -44.0591 C   0  0  0  0  0  0  0  0  0  0  0  0
  -36.4034    5.6290  -43.5851 C   0  0  0  0  0  0  0  0  0  0  0  0
  -36.8081    5.8422  -42.1313 C   0  0  0  0  0  0  0  0  0  0  0  0
  -35.5925    6.5676  -41.6100 C   0  0  0  0  0  0  0  0  0  0  0  0
  -35.5652    6.4178  -40.0980 C   0  0  0  0  0  0  0  0  0  0  0  0
  -35.0680    5.0084  -39.8439 C   0  0  0  0  0  0  0  0  0  0  0  0
  -34.7940    4.4349  -41.2324 C   0  0  0  0  0  0  0  0  0  0  0  0
  -34.5460    5.6263  -42.0741 N   0  0  0  0  0  0  0  0  0  0  0  0
  -34.9233    5.3198  -43.4627 C   0  0  0  0  0  0  0  0  0  0  0  0
  -34.8465    3.8116  -43.6742 C   0  0  0  0  0  0  0  0  0  0  0  0
  -36.2358    1.9404  -44.8851 X   0  0  0  0  0  0  0  0  0  0  0  0
  1  2  1  0  0  0  0
  1 11  1  0  0  0  0
  1 12  1  0  0  0  0
  2  3  1  0  0  0  0
  3  4  1  0  0  0  0
  3 10  1  0  0  0  0
  4  5  1  0  0  0  0
  5  6  1  0  0  0  0
  5  9  1  0  0  0  0
  6  7  1  0  0  0  0
  7  8  1  0  0  0  0
  8  9  1  0  0  0  0
  9 10  1  0  0  0  0
 10 11  1  0  0  0  0
M  END
> <Index>
20846

> <PropertyFieldDistance>
nan

$$$$
14943174
BBcorina  12272117083D 1   1.00000     0.00000 
CORINA 4.3.0 0026  30.10.2019
 14 15  0  0  0  0  0  0  0  0999 V2000
  -36.3408    2.3059  -44.8827 C   0  0  0  0  0  0  0  0  0  0  0  0
  -35.9439    3.3319  -43.9093 N   0  0  0  0  0  0  0  0  0  0  0  0
  -37.0330    4.2901  -43.6810 C   0  0  0  0  0  0  0  0  0  0  0  0
  -36.6120    5.2727  -42.5853 C   0  0  0  0  0  0  0  0  0  0  0  0
  -35.3944    5.9093  -42.9819 O   0  0  0  0  0  0  0  0  0  0  0  0
  -34.3198    4.9996  -43.2233 C   0  0  0  0  0  0  0  0  0  0  0  0
  -34.7252    4.0375  -44.3516 C   0  0  0  0  0  0  0  0  0  0  0  0
  -35.1682    4.9321  -45.5322 C   0  0  0  0  0  0  0  0  0  0  0  0
  -34.2762    5.9791  -45.7668 O   0  0  0  0  0  0  0  0  0  0  0  0
  -33.2391    5.7687  -46.7573 C   0  0  0  0  0  0  0  0  0  0  0  0
  -32.6733    4.3408  -46.6205 C   0  0  0  0  0  0  0  0  0  0  0  0
  -32.4547    3.8261  -45.2926 N   0  0  0  0  0  0  0  0  0  0  0  0
  -33.6375    3.1151  -44.7309 C   0  0  0  0  0  0  0  0  0  0  0  0
  -31.0624    2.8347  -45.2411 X   0  0  0  0  0  0  0  0  0  0  0  0
  1  2  1  0  0  0  0
  2  3  1  0  0  0  0
  2  7  1  0  0  0  0
  3  4  1  0  0  0  0
  4  5  1  0  0  0  0
  5  6  1  0  0  0  0
  6  7  1  0  0  0  0
  7  8  1  0  0  0  0
  7 13  1  0  0  0  0
  8  9  1  0  0  0  0
  9 10  1  0  0  0  0
 10 11  1  0  0  0  0
 11 12  1  0  0  0  0
 12 13  1  0  0  0  0
 12 14  1  0  0  0  0
M  END
> <Index>
20854

> <PropertyFieldDistance>
nan

$$$$
15065998
BBcorina  12272117083D 1   1.00000     0.00000 
CORINA 4.3.0 0026  30.10.2019
 10 11  0  0  0  0  0  0  0  0999 V2000
  -35.8800    4.9906  -44.7674 N   0  0  0  0  0  0  0  0  0  0  0  0
  -35.2650    4.4271  -43.5582 C   0  0  0  0  0  0  0  0  0  0  0  0
  -33.7696    4.5265  -43.5720 C   0  0  0  0  0  0  0  0  0  0  0  0
  -33.0303    5.4885  -43.5742 O   0  0  0  0  0  0  0  0  0  0  0  0
  -33.4407    2.8520  -43.5841 S   0  0  0  0  0  0  0  0  0  0  0  0
  -35.2443    2.9057  -43.5666 C   0  0  0  0  0  0  0  0  0  0  0  0
  -36.0257    2.1169  -42.5037 C   0  0  0  0  0  0  0  0  0  0  0  0
  -36.2121    1.0220  -43.5675 C   0  0  0  0  0  0  0  0  0  0  0  0
  -36.0459    2.1283  -44.6228 C   0  0  0  0  0  0  0  0  0  0  0  0
  -36.6292    6.4907  -44.4318 X   0  0  0  0  0  0  0  0  0  0  0  0
  1  2  1  0  0  0  0
  1 10  1  0  0  0  0
  2  3  1  0  0  0  0
  2  6  1  0  0  0  0
  3  4  2  0  0  0  0
  3  5  1  0  0  0  0
  5  6  1  0  0  0  0
  6  7  1  0  0  0  0
  6  9  1  0  0  0  0
  7  8  1  0  0  0  0
  8  9  1  0  0  0  0
M  END
> <Index>
20858

> <PropertyFieldDistance>
nan

$$$$
15061906
BBcorina  12272117083D 1   1.00000     0.00000 
CORINA 4.3.0 0026  30.10.2019
 12 12  0  0  0  0  0  0  0  0999 V2000
  -33.7194    7.2974  -41.6166 C   0  0  0  0  0  0  0  0  0  0  0  0
  -34.9629    6.5332  -41.4502 N   0  0  0  0  0  0  0  0  0  0  0  0
  -35.3536    5.8831  -42.7083 C   0  0  0  0  0  0  0  0  0  0  0  0
  -36.6588    5.1098  -42.5009 C   0  0  0  0  0  0  0  0  0  0  0  0
  -37.0292    4.3867  -43.7977 C   0  0  0  0  0  0  0  0  0  0  0  0
  -35.9483    3.4661  -44.1724 N   0  0  0  0  0  0  0  0  0  0  0  0
  -34.6961    4.1913  -44.4229 C   0  0  0  0  0  0  0  0  0  0  0  0
  -34.2549    4.9096  -43.1439 C   0  0  0  0  0  0  0  0  0  0  0  0
  -35.5518    6.9288  -43.7752 C   0  0  0  0  0  0  0  0  0  0  0  0
  -35.1900    6.7113  -44.9121 O   0  0  0  0  0  0  0  0  0  0  0  0
  -36.1361    8.1035  -43.4670 N   0  0  0  0  0  0  0  0  0  0  0  0
  -36.3903    2.5207  -45.5269 X   0  0  0  0  0  0  0  0  0  0  0  0
  1  2  1  0  0  0  0
  2  3  1  0  0  0  0
  3  4  1  0  0  0  0
  3  8  1  0  0  0  0
  3  9  1  0  0  0  0
  4  5  1  0  0  0  0
  5  6  1  0  0  0  0
  6  7  1  0  0  0  0
  6 12  1  0  0  0  0
  7  8  1  0  0  0  0
  9 10  2  0  0  0  0
  9 11  1  0  0  0  0
M  END
> <Index>
20865

> <PropertyFieldDistance>
nan

$$$$
14484078
BBcorina  12272117083D 1   1.00000     0.00000 
CORINA 4.3.0 0026  30.10.2019
 11 12  0  0  0  0  0  0  0  0999 V2000
  -31.7378    4.8936  -43.7942 C   0  0  0  0  0  0  0  0  0  0  0  0
  -32.8471    4.9087  -42.7406 C   0  0  0  0  0  0  0  0  0  0  0  0
  -32.6302    4.1877  -41.4839 N   0  0  0  0  0  0  0  0  0  0  0  0
  -32.5377    5.4234  -41.4043 N   0  0  0  0  0  0  0  0  0  0  0  0
  -34.2770    5.0496  -43.2665 C   0  0  0  0  0  0  0  0  0  0  0  0
  -35.2462    5.1675  -42.0869 C   0  0  0  0  0  0  0  0  0  0  0  0
  -36.6793    5.2476  -42.6202 C   0  0  0  0  0  0  0  0  0  0  0  0
  -36.9723    4.0086  -43.4695 C   0  0  0  0  0  0  0  0  0  0  0  0
  -36.0192    3.9414  -44.5845 N   0  0  0  0  0  0  0  0  0  0  0  0
  -34.6396    3.8164  -44.0970 C   0  0  0  0  0  0  0  0  0  0  0  0
  -36.4111    2.6622  -45.6494 X   0  0  0  0  0  0  0  0  0  0  0  0
  1  2  1  0  0  0  0
  2  3  1  0  0  0  0
  2  4  1  0  0  0  0
  2  5  1  0  0  0  0
  3  4  2  0  0  0  0
  5  6  1  0  0  0  0
  5 10  1  0  0  0  0
  6  7  1  0  0  0  0
  7  8  1  0  0  0  0
  8  9  1  0  0  0  0
  9 10  1  0  0  0  0
  9 11  1  0  0  0  0
M  END
> <Index>
20882

> <PropertyFieldDistance>
nan

$$$$
15145964
BBcorina  12272117083D 1   1.00000     0.00000 
CORINA 4.3.0 0026  30.10.2019
 14 15  0  0  0  0  0  0  0  0999 V2000
  -38.3517   -0.1623  -46.6046 C   0  0  0  0  0  0  0  0  0  0  0  0
  -37.3957    0.9304  -46.2008 C   0  0  0  0  0  0  0  0  0  0  0  0
  -36.4806    1.4676  -46.9662 N   0  0  0  0  0  0  0  0  0  0  0  0
  -35.8012    2.4434  -46.2259 N   0  0  0  0  0  0  0  0  0  0  0  0
  -36.3438    2.4735  -44.9812 C   0  0  0  0  0  0  0  0  0  0  0  0
  -35.9569    3.3055  -43.9339 N   0  0  0  0  0  0  0  0  0  0  0  0
  -37.0243    4.2574  -43.5956 C   0  0  0  0  0  0  0  0  0  0  0  0
  -36.5918    5.0979  -42.3918 C   0  0  0  0  0  0  0  0  0  0  0  0
  -35.3435    5.8034  -42.7133 N   0  0  0  0  0  0  0  0  0  0  0  0
  -34.2761    4.8517  -43.0517 C   0  0  0  0  0  0  0  0  0  0  0  0
  -34.7085    4.0111  -44.2553 C   0  0  0  0  0  0  0  0  0  0  0  0
  -37.3360    1.5412  -44.9451 C   0  0  0  0  0  0  0  0  0  0  0  0
  -38.5609    1.1061  -43.3021 I   0  0  0  0  0  0  0  0  0  0  0  0
  -34.8684    6.8252  -41.4272 X   0  0  0  0  0  0  0  0  0  0  0  0
  1  2  1  0  0  0  0
  2  3  2  0  0  0  0
  2 12  1  0  0  0  0
  3  4  1  0  0  0  0
  4  5  1  0  0  0  0
  5  6  1  0  0  0  0
  5 12  2  0  0  0  0
  6  7  1  0  0  0  0
  6 11  1  0  0  0  0
  7  8  1  0  0  0  0
  8  9  1  0  0  0  0
  9 10  1  0  0  0  0
  9 14  1  0  0  0  0
 10 11  1  0  0  0  0
 12 13  1  0  0  0  0
M  END
> <Index>
20884

> <PropertyFieldDistance>
nan

$$$$
13890588
BBcorina  12272117083D 1   1.00000     0.00000 
CORINA 4.3.0 0026  30.10.2019
 14 15  0  0  0  0  0  0  0  0999 V2000
  -36.0241    4.3528  -44.7088 N   0  0  0  0  0  0  0  0  0  0  0  0
  -37.0703    3.8384  -43.8582 C   0  0  0  0  0  0  0  0  0  0  0  0
  -37.5130    4.9557  -42.8911 C   0  0  0  0  0  0  0  0  0  0  0  0
  -36.5784    5.1134  -41.7788 C   0  0  0  0  0  0  0  0  0  0  0  0
  -35.2194    5.4817  -42.2378 N   0  0  0  0  0  0  0  0  0  0  0  0
  -34.5178    4.3065  -42.6936 C   0  0  0  0  0  0  0  0  0  0  0  0
  -34.6529    4.0903  -44.2117 C   0  0  0  0  0  0  0  0  0  0  0  0
  -34.5105    6.1253  -41.2300 C   0  0  0  0  0  0  0  0  0  0  0  0
  -33.2080    6.5515  -41.4675 C   0  0  0  0  0  0  0  0  0  0  0  0
  -32.5143    7.1912  -40.4558 C   0  0  0  0  0  0  0  0  0  0  0  0
  -33.1492    7.3836  -39.2362 C   0  0  0  0  0  0  0  0  0  0  0  0
  -34.4441    6.9346  -39.0696 C   0  0  0  0  0  0  0  0  0  0  0  0
  -35.0833    6.3321  -40.0541 N   0  0  0  0  0  0  0  0  0  0  0  0
  -36.2104    3.7974  -46.3153 X   0  0  0  0  0  0  0  0  0  0  0  0
  1  2  1  0  0  0  0
  1  7  1  0  0  0  0
  1 14  1  0  0  0  0
  2  3  1  0  0  0  0
  3  4  1  0  0  0  0
  4  5  1  0  0  0  0
  5  6  1  0  0  0  0
  5  8  1  0  0  0  0
  6  7  1  0  0  0  0
  8  9  2  0  0  0  0
  8 13  1  0  0  0  0
  9 10  1  0  0  0  0
 10 11  2  0  0  0  0
 11 12  1  0  0  0  0
 12 13  2  0  0  0  0
M  END
> <Index>
20903

> <PropertyFieldDistance>
nan

$$$$
16608412
BBcorina  12272117083D 1   1.00000     0.00000 
CORINA 4.3.0 0026  30.10.2019
 10 10  0  0  0  0  0  0  0  0999 V2000
  -32.5288    5.2158  -42.5047 C   0  0  0  0  0  0  0  0  0  0  0  0
  -33.9686    5.2810  -41.9910 C   0  0  0  0  0  0  0  0  0  0  0  0
  -34.1657    6.5300  -41.2434 N   0  0  0  0  0  0  0  0  0  0  0  0
  -34.9353    5.2380  -43.1762 C   0  0  0  0  0  0  0  0  0  0  0  0
  -36.3980    5.2313  -42.6756 C   0  0  0  0  0  0  0  0  0  0  0  0
  -37.0921    4.2439  -43.6472 C   0  0  0  0  0  0  0  0  0  0  0  0
  -36.0592    3.1990  -43.8653 N   0  0  0  0  0  0  0  0  0  0  0  0
  -36.3258    2.4444  -45.0972 C   0  0  0  0  0  0  0  0  0  0  0  0
  -34.7700    3.9187  -43.9531 C   0  0  0  0  0  0  0  0  0  0  0  0
  -33.8759    7.8913  -42.2371 X   0  0  0  0  0  0  0  0  0  0  0  0
  1  2  1  0  0  0  0
  2  3  1  0  0  0  0
  2  4  1  0  0  0  0
  3 10  1  0  0  0  0
  4  5  1  0  0  0  0
  4  9  1  0  0  0  0
  5  6  1  0  0  0  0
  6  7  1  0  0  0  0
  7  8  1  0  0  0  0
  7  9  1  0  0  0  0
M  END
> <Index>
20920

> <PropertyFieldDistance>
nan

$$$$
9967110
BBcorina  12272117083D 1   1.00000     0.00000 
CORINA 4.3.0 0026  30.10.2019
 13 14  0  0  0  0  0  0  0  0999 V2000
  -34.9530    8.9949  -42.2622 C   0  0  0  0  0  0  0  0  0  0  0  0
  -34.7750    7.9219  -41.2192 C   0  0  0  0  0  0  0  0  0  0  0  0
  -34.4319    8.1144  -39.9713 N   0  0  0  0  0  0  0  0  0  0  0  0
  -34.3698    6.8669  -39.3371 N   0  0  0  0  0  0  0  0  0  0  0  0
  -34.6932    5.9227  -40.2454 C   0  0  0  0  0  0  0  0  0  0  0  0
  -34.9519    6.5486  -41.4168 C   0  0  0  0  0  0  0  0  0  0  0  0
  -35.3534    5.8832  -42.7079 C   0  0  0  0  0  0  0  0  0  0  0  0
  -36.6587    5.1099  -42.5007 C   0  0  0  0  0  0  0  0  0  0  0  0
  -37.0290    4.3869  -43.7977 C   0  0  0  0  0  0  0  0  0  0  0  0
  -35.9479    3.4664  -44.1723 N   0  0  0  0  0  0  0  0  0  0  0  0
  -34.6959    4.1916  -44.4226 C   0  0  0  0  0  0  0  0  0  0  0  0
  -34.2559    4.9088  -43.1443 C   0  0  0  0  0  0  0  0  0  0  0  0
  -36.3900    2.5211  -45.5270 X   0  0  0  0  0  0  0  0  0  0  0  0
  1  2  1  0  0  0  0
  2  3  2  0  0  0  0
  2  6  1  0  0  0  0
  3  4  1  0  0  0  0
  4  5  1  0  0  0  0
  5  6  2  0  0  0  0
  6  7  1  0  0  0  0
  7  8  1  0  0  0  0
  7 12  1  0  0  0  0
  8  9  1  0  0  0  0
  9 10  1  0  0  0  0
 10 11  1  0  0  0  0
 10 13  1  0  0  0  0
 11 12  1  0  0  0  0
M  END
> <Index>
20928

> <PropertyFieldDistance>
nan

$$$$
13155490
BBcorina  12272117083D 1   1.00000     0.00000 
CORINA 4.3.0 0026  30.10.2019
 13 14  0  0  0  0  0  0  0  0999 V2000
  -34.6248    8.4202  -38.3147 C   0  0  0  0  0  0  0  0  0  0  0  0
  -34.6526    7.8519  -39.6647 N   0  0  0  0  0  0  0  0  0  0  0  0
  -34.3102    8.4916  -40.8026 C   0  0  0  0  0  0  0  0  0  0  0  0
  -34.4685    7.6226  -41.8278 C   0  0  0  0  0  0  0  0  0  0  0  0
  -34.9316    6.4132  -41.2993 C   0  0  0  0  0  0  0  0  0  0  0  0
  -35.0392    6.5485  -40.0025 N   0  0  0  0  0  0  0  0  0  0  0  0
  -35.2462    5.1676  -42.0870 C   0  0  0  0  0  0  0  0  0  0  0  0
  -36.6793    5.2476  -42.6202 C   0  0  0  0  0  0  0  0  0  0  0  0
  -36.9723    4.0086  -43.4695 C   0  0  0  0  0  0  0  0  0  0  0  0
  -36.0192    3.9414  -44.5845 N   0  0  0  0  0  0  0  0  0  0  0  0
  -34.6396    3.8164  -44.0970 C   0  0  0  0  0  0  0  0  0  0  0  0
  -34.2769    5.0495  -43.2665 C   0  0  0  0  0  0  0  0  0  0  0  0
  -36.4111    2.6622  -45.6494 X   0  0  0  0  0  0  0  0  0  0  0  0
  1  2  1  0  0  0  0
  2  3  1  0  0  0  0
  2  6  1  0  0  0  0
  3  4  2  0  0  0  0
  4  5  1  0  0  0  0
  5  6  2  0  0  0  0
  5  7  1  0  0  0  0
  7  8  1  0  0  0  0
  7 12  1  0  0  0  0
  8  9  1  0  0  0  0
  9 10  1  0  0  0  0
 10 11  1  0  0  0  0
 10 13  1  0  0  0  0
 11 12  1  0  0  0  0
M  END
> <Index>
20929

> <PropertyFieldDistance>
nan

$$$$
12629704
BBcorina  12272117083D 1   1.00000     0.00000 
CORINA 4.3.0 0026  30.10.2019
 13 14  0  0  0  0  0  0  0  0999 V2000
  -36.4062    2.2320  -44.4291 C   0  0  0  0  0  0  0  0  0  0  0  0
  -36.0320    3.6457  -44.5692 N   0  0  0  0  0  0  0  0  0  0  0  0
  -37.0024    4.5226  -43.8754 C   0  0  0  0  0  0  0  0  0  0  0  0
  -36.4559    4.7118  -42.4786 C   0  0  0  0  0  0  0  0  0  0  0  0
  -37.0488    5.1470  -41.3093 C   0  0  0  0  0  0  0  0  0  0  0  0
  -36.3064    5.2288  -40.1458 C   0  0  0  0  0  0  0  0  0  0  0  0
  -34.9704    4.8749  -40.1522 C   0  0  0  0  0  0  0  0  0  0  0  0
  -34.3763    4.4387  -41.3220 C   0  0  0  0  0  0  0  0  0  0  0  0
  -35.1174    4.3568  -42.4849 C   0  0  0  0  0  0  0  0  0  0  0  0
  -34.7486    3.9251  -43.8860 C   0  0  0  0  0  0  0  0  0  0  0  0
  -34.0005    5.0490  -44.6057 C   0  0  0  0  0  0  0  0  0  0  0  0
  -33.7863    4.6739  -46.0098 N   0  0  0  0  0  0  0  0  0  0  0  0
  -32.9513    5.9055  -46.8525 X   0  0  0  0  0  0  0  0  0  0  0  0
  1  2  1  0  0  0  0
  2  3  1  0  0  0  0
  2 10  1  0  0  0  0
  3  4  1  0  0  0  0
  4  5  2  0  0  0  0
  4  9  1  0  0  0  0
  5  6  1  0  0  0  0
  6  7  2  0  0  0  0
  7  8  1  0  0  0  0
  8  9  2  0  0  0  0
  9 10  1  0  0  0  0
 10 11  1  0  0  0  0
 11 12  1  0  0  0  0
 12 13  1  0  0  0  0
M  END
> <Index>
20931

> <PropertyFieldDistance>
nan

$$$$
11567532
BBcorina  12272117083D 1   1.00000     0.00000 
CORINA 4.3.0 0026  30.10.2019
 11 12  0  0  0  0  0  0  0  0999 V2000
  -36.0211    3.9209  -44.5930 N   0  0  0  0  0  0  0  0  0  0  0  0
  -36.9734    4.0222  -43.4778 C   0  0  0  0  0  0  0  0  0  0  0  0
  -36.6289    5.2487  -42.6290 C   0  0  0  0  0  0  0  0  0  0  0  0
  -35.2759    5.1465  -42.1784 O   0  0  0  0  0  0  0  0  0  0  0  0
  -34.3215    5.0540  -43.2441 C   0  0  0  0  0  0  0  0  0  0  0  0
  -34.4273    6.3064  -44.1197 C   0  0  0  0  0  0  0  0  0  0  0  0
  -33.4600    7.3883  -43.5726 C   0  0  0  0  0  0  0  0  0  0  0  0
  -31.9821    6.3657  -43.1795 S   0  0  0  0  0  0  0  0  0  0  0  0
  -32.9179    4.8859  -42.6351 C   0  0  0  0  0  0  0  0  0  0  0  0
  -34.6424    3.8179  -44.0939 C   0  0  0  0  0  0  0  0  0  0  0  0
  -36.4051    2.5999  -45.6088 X   0  0  0  0  0  0  0  0  0  0  0  0
  1  2  1  0  0  0  0
  1 10  1  0  0  0  0
  1 11  1  0  0  0  0
  2  3  1  0  0  0  0
  3  4  1  0  0  0  0
  4  5  1  0  0  0  0
  5  6  1  0  0  0  0
  5  9  1  0  0  0  0
  5 10  1  0  0  0  0
  6  7  1  0  0  0  0
  7  8  1  0  0  0  0
  8  9  1  0  0  0  0
M  END
> <Index>
20933

> <PropertyFieldDistance>
nan

$$$$
8804660
BBcorina  12272117083D 1   1.00000     0.00000 
CORINA 4.3.0 0026  30.10.2019
 14 15  0  0  0  0  0  0  0  0999 V2000
  -36.9503    1.5781  -45.2542 C   0  0  0  0  0  0  0  0  0  0  0  0
  -35.8550    2.6312  -45.4336 C   0  0  0  0  0  0  0  0  0  0  0  0
  -35.6767    3.3711  -44.1772 N   0  0  0  0  0  0  0  0  0  0  0  0
  -36.8825    4.1427  -43.8447 C   0  0  0  0  0  0  0  0  0  0  0  0
  -36.6862    4.8338  -42.4933 C   0  0  0  0  0  0  0  0  0  0  0  0
  -35.5067    5.7079  -42.5599 N   0  0  0  0  0  0  0  0  0  0  0  0
  -34.3010    4.9364  -42.8923 C   0  0  0  0  0  0  0  0  0  0  0  0
  -34.4973    4.2454  -44.2437 C   0  0  0  0  0  0  0  0  0  0  0  0
  -34.5617    1.9526  -45.8048 C   0  0  0  0  0  0  0  0  0  0  0  0
  -34.1014    1.8898  -47.1088 C   0  0  0  0  0  0  0  0  0  0  0  0
  -32.9368    1.2582  -47.2639 C   0  0  0  0  0  0  0  0  0  0  0  0
  -32.3612    0.6903  -45.7019 S   0  0  0  0  0  0  0  0  0  0  0  0
  -33.7762    1.3626  -44.9024 C   0  0  0  0  0  0  0  0  0  0  0  0
  -35.2991    6.5694  -41.0973 X   0  0  0  0  0  0  0  0  0  0  0  0
  1  2  1  0  0  0  0
  2  3  1  0  0  0  0
  2  9  1  0  0  0  0
  3  4  1  0  0  0  0
  3  8  1  0  0  0  0
  4  5  1  0  0  0  0
  5  6  1  0  0  0  0
  6  7  1  0  0  0  0
  6 14  1  0  0  0  0
  7  8  1  0  0  0  0
  9 10  1  0  0  0  0
  9 13  2  0  0  0  0
 10 11  2  0  0  0  0
 11 12  1  0  0  0  0
 12 13  1  0  0  0  0
M  END
> <Index>
20944

> <PropertyFieldDistance>
nan

$$$$
10964378
BBcorina  12272117083D 1   1.00000     0.00000 
CORINA 4.3.0 0026  30.10.2019
 16 17  0  0  0  0  0  0  0  0999 V2000
  -34.7286    1.0225  -49.2342 C   0  0  0  0  0  0  0  0  0  0  0  0
  -34.7726    1.7683  -47.9693 N   0  0  0  0  0  0  0  0  0  0  0  0
  -34.6117    0.8670  -46.8211 C   0  0  0  0  0  0  0  0  0  0  0  0
  -34.5166    1.6900  -45.5344 C   0  0  0  0  0  0  0  0  0  0  0  0
  -35.7882    2.5280  -45.3751 C   0  0  0  0  0  0  0  0  0  0  0  0
  -36.9985    1.6010  -45.2458 C   0  0  0  0  0  0  0  0  0  0  0  0
  -36.8942    0.8305  -43.9994 N   0  0  0  0  0  0  0  0  0  0  0  0
  -35.9581    3.4225  -46.6061 C   0  0  0  0  0  0  0  0  0  0  0  0
  -36.0114    2.5494  -47.8618 C   0  0  0  0  0  0  0  0  0  0  0  0
  -35.6784    3.3628  -44.1714 N   0  0  0  0  0  0  0  0  0  0  0  0
  -36.9144    4.1259  -43.9449 C   0  0  0  0  0  0  0  0  0  0  0  0
  -36.7791    4.9341  -42.6517 C   0  0  0  0  0  0  0  0  0  0  0  0
  -35.6294    5.7799  -42.7421 O   0  0  0  0  0  0  0  0  0  0  0  0
  -34.4078    5.0695  -42.9619 C   0  0  0  0  0  0  0  0  0  0  0  0
  -34.5191    4.2626  -44.2583 C   0  0  0  0  0  0  0  0  0  0  0  0
  -38.3041   -0.1001  -43.7342 X   0  0  0  0  0  0  0  0  0  0  0  0
  1  2  1  0  0  0  0
  2  3  1  0  0  0  0
  2  9  1  0  0  0  0
  3  4  1  0  0  0  0
  4  5  1  0  0  0  0
  5  6  1  0  0  0  0
  5  8  1  0  0  0  0
  5 10  1  0  0  0  0
  6  7  1  0  0  0  0
  7 16  1  0  0  0  0
  8  9  1  0  0  0  0
 10 11  1  0  0  0  0
 10 15  1  0  0  0  0
 11 12  1  0  0  0  0
 12 13  1  0  0  0  0
 13 14  1  0  0  0  0
 14 15  1  0  0  0  0
M  END
> <Index>
20949

> <PropertyFieldDistance>
nan

$$$$
17310284
BBcorina  12272117083D 1   1.00000     0.00000 
CORINA 4.3.0 0026  30.10.2019
 12 13  0  0  0  0  0  0  0  0999 V2000
  -37.0172    2.8331  -39.4373 N   0  0  0  0  0  0  0  0  0  0  0  0
  -36.8401    3.8737  -40.4589 C   0  0  0  0  0  0  0  0  0  0  0  0
  -36.5028    3.2195  -41.8002 C   0  0  0  0  0  0  0  0  0  0  0  0
  -36.3183    4.3034  -42.8642 C   0  0  0  0  0  0  0  0  0  0  0  0
  -37.6138    5.1198  -43.0450 C   0  0  0  0  0  0  0  0  0  0  0  0
  -37.6344    5.4020  -44.5776 C   0  0  0  0  0  0  0  0  0  0  0  0
  -37.0491    4.0812  -45.1367 C   0  0  0  0  0  0  0  0  0  0  0  0
  -35.9907    3.7032  -44.1753 N   0  0  0  0  0  0  0  0  0  0  0  0
  -34.6908    4.2457  -44.6257 C   0  0  0  0  0  0  0  0  0  0  0  0
  -33.9736    4.6914  -43.3275 C   0  0  0  0  0  0  0  0  0  0  0  0
  -35.1564    5.2460  -42.4906 C   0  0  0  0  0  0  0  0  0  0  0  0
  -37.3963    3.5229  -37.9192 X   0  0  0  0  0  0  0  0  0  0  0  0
  1  2  1  0  0  0  0
  1 12  1  0  0  0  0
  2  3  1  0  0  0  0
  3  4  1  0  0  0  0
  4  5  1  0  0  0  0
  4  8  1  0  0  0  0
  4 11  1  0  0  0  0
  5  6  1  0  0  0  0
  6  7  1  0  0  0  0
  7  8  1  0  0  0  0
  8  9  1  0  0  0  0
  9 10  1  0  0  0  0
 10 11  1  0  0  0  0
M  END
> <Index>
20974

> <PropertyFieldDistance>
nan

$$$$
14593392
BBcorina  12272117083D 1   1.00000     0.00000 
CORINA 4.3.0 0026  30.10.2019
  9  9  0  0  0  0  0  0  0  0999 V2000
  -35.4705    0.1845  -42.7352 Br  0  0  0  0  0  0  0  0  0  0  0  0
  -35.3097    1.9934  -43.2624 C   0  0  0  0  0  0  0  0  0  0  0  0
  -34.4011    2.7158  -42.6865 C   0  0  0  0  0  0  0  0  0  0  0  0
  -34.1617    4.1655  -42.9917 C   0  0  0  0  0  0  0  0  0  0  0  0
  -34.8150    4.5386  -44.3241 C   0  0  0  0  0  0  0  0  0  0  0  0
  -36.2634    4.0336  -44.3130 C   0  0  0  0  0  0  0  0  0  0  0  0
  -36.2426    2.5035  -44.3214 C   0  0  0  0  0  0  0  0  0  0  0  0
  -37.5969    1.9968  -44.0625 N   0  0  0  0  0  0  0  0  0  0  0  0
  -37.8449    0.4900  -44.8320 X   0  0  0  0  0  0  0  0  0  0  0  0
  1  2  1  0  0  0  0
  2  3  2  0  0  0  0
  2  7  1  0  0  0  0
  3  4  1  0  0  0  0
  4  5  1  0  0  0  0
  5  6  1  0  0  0  0
  6  7  1  0  0  0  0
  7  8  1  0  0  0  0
  8  9  1  0  0  0  0
M  END
> <Index>
20986

> <PropertyFieldDistance>
nan

$$$$
13206552
BBcorina  12272117083D 1   1.00000     0.00000 
CORINA 4.3.0 0026  30.10.2019
 10 11  0  0  0  0  0  0  0  0999 V2000
  -36.3502    2.3615  -44.9587 C   0  0  0  0  0  0  0  0  0  0  0  0
  -35.9474    3.2931  -43.8967 N   0  0  0  0  0  0  0  0  0  0  0  0
  -36.9917    4.3299  -43.6720 C   0  0  0  0  0  0  0  0  0  0  0  0
  -36.8216    5.2973  -44.8672 C   0  0  0  0  0  0  0  0  0  0  0  0
  -35.3457    5.1419  -45.2906 C   0  0  0  0  0  0  0  0  0  0  0  0
  -34.7639    4.0952  -44.3112 C   0  0  0  0  0  0  0  0  0  0  0  0
  -34.2730    4.8475  -43.0631 C   0  0  0  0  0  0  0  0  0  0  0  0
  -35.3204    5.7807  -42.6253 N   0  0  0  0  0  0  0  0  0  0  0  0
  -36.5985    5.0926  -42.3959 C   0  0  0  0  0  0  0  0  0  0  0  0
  -34.8299    6.6428  -41.2324 X   0  0  0  0  0  0  0  0  0  0  0  0
  1  2  1  0  0  0  0
  2  3  1  0  0  0  0
  2  6  1  0  0  0  0
  3  4  1  0  0  0  0
  3  9  1  0  0  0  0
  4  5  1  0  0  0  0
  5  6  1  0  0  0  0
  6  7  1  0  0  0  0
  7  8  1  0  0  0  0
  8  9  1  0  0  0  0
  8 10  1  0  0  0  0
M  END
> <Index>
20998

> <PropertyFieldDistance>
nan

$$$$
15272706
BBcorina  12272117083D 1   1.00000     0.00000 
CORINA 4.3.0 0026  30.10.2019
 10 11  0  0  0  0  0  0  0  0999 V2000
  -37.6298    5.3498  -41.5584 O   0  0  0  0  0  0  0  0  0  0  0  0
  -36.6967    5.2753  -42.6381 C   0  0  0  0  0  0  0  0  0  0  0  0
  -36.9444    3.9965  -43.4405 C   0  0  0  0  0  0  0  0  0  0  0  0
  -36.0235    3.9370  -44.5819 N   0  0  0  0  0  0  0  0  0  0  0  0
  -34.6269    3.8273  -44.1345 C   0  0  0  0  0  0  0  0  0  0  0  0
  -34.2958    5.0275  -43.2428 C   0  0  0  0  0  0  0  0  0  0  0  0
  -33.6820    6.2597  -43.9054 C   0  0  0  0  0  0  0  0  0  0  0  0
  -32.8228    5.3610  -43.0132 C   0  0  0  0  0  0  0  0  0  0  0  0
  -35.2686    5.2534  -42.0804 C   0  0  0  0  0  0  0  0  0  0  0  0
  -36.4329    2.6521  -45.6332 X   0  0  0  0  0  0  0  0  0  0  0  0
  1  2  1  0  0  0  0
  2  3  1  0  0  0  0
  2  9  1  0  0  0  0
  3  4  1  0  0  0  0
  4  5  1  0  0  0  0
  4 10  1  0  0  0  0
  5  6  1  0  0  0  0
  6  7  1  0  0  0  0
  6  8  1  0  0  0  0
  6  9  1  0  0  0  0
  7  8  1  0  0  0  0
M  END
> <Index>
21006

> <PropertyFieldDistance>
nan

$$$$
15344900
BBcorina  12272117083D 1   1.00000     0.00000 
CORINA 4.3.0 0026  30.10.2019
 15 15  0  0  0  0  0  0  0  0999 V2000
  -36.3361    3.4024  -45.2051 C   0  0  0  0  0  0  0  0  0  0  0  0
  -35.9210    3.1074  -43.8271 N   0  3  0  0  0  0  0  0  0  0  0  0
  -35.9647    1.6620  -43.6051 O   0  5  0  0  0  0  0  0  0  0  0  0
  -36.8337    3.7728  -42.8897 C   0  0  0  0  0  0  0  0  0  0  0  0
  -36.8516    5.2769  -43.1702 C   0  0  0  0  0  0  0  0  0  0  0  0
  -35.4382    5.8400  -42.9956 C   0  0  0  0  0  0  0  0  0  0  0  0
  -34.9914    5.6597  -41.5434 C   0  0  0  0  0  0  0  0  0  0  0  0
  -33.6166    6.1537  -41.3892 N   0  0  0  0  0  0  0  0  0  0  0  0
  -34.4812    5.0877  -43.9247 C   0  0  0  0  0  0  0  0  0  0  0  0
  -34.5511    3.5906  -43.6163 C   0  0  0  0  0  0  0  0  0  0  0  0
  -35.4317    7.6043  -43.4176 S   0  0  0  0  0  0  0  0  0  0  0  0
  -34.0832    8.0414  -43.5154 O   0  0  0  0  0  0  0  0  0  0  0  0
  -36.3192    8.2831  -42.5396 O   0  0  0  0  0  0  0  0  0  0  0  0
  -36.1581    7.5946  -45.0797 C   0  0  0  0  0  0  0  0  0  0  0  0
  -33.0193    5.8239  -39.8212 X   0  0  0  0  0  0  0  0  0  0  0  0
  1  2  1  0  0  0  0
  2  3  1  0  0  0  0
  2  4  1  0  0  0  0
  2 10  1  0  0  0  0
  4  5  1  0  0  0  0
  5  6  1  0  0  0  0
  6  7  1  0  0  0  0
  6  9  1  0  0  0  0
  6 11  1  0  0  0  0
  7  8  1  0  0  0  0
  8 15  1  0  0  0  0
  9 10  1  0  0  0  0
 11 12  2  0  0  0  0
 11 13  2  0  0  0  0
 11 14  1  0  0  0  0
M  END
> <Index>
21010

> <PropertyFieldDistance>
nan

$$$$
10706266
BBcorina  12272117083D 1   1.00000     0.00000 
CORINA 4.3.0 0026  30.10.2019
 13 14  0  0  0  0  0  0  0  0999 V2000
  -36.3407    2.3425  -44.9180 C   0  0  0  0  0  0  0  0  0  0  0  0
  -36.0391    3.6664  -44.3574 N   0  0  0  0  0  0  0  0  0  0  0  0
  -36.9557    3.9935  -43.2563 C   0  0  0  0  0  0  0  0  0  0  0  0
  -36.6603    5.4093  -42.7564 C   0  0  0  0  0  0  0  0  0  0  0  0
  -35.2620    5.4863  -42.3112 N   0  0  0  0  0  0  0  0  0  0  0  0
  -34.3458    5.1596  -43.4128 C   0  0  0  0  0  0  0  0  0  0  0  0
  -34.6414    3.7430  -43.9107 C   0  0  0  0  0  0  0  0  0  0  0  0
  -34.4145    2.7456  -42.7729 C   0  0  0  0  0  0  0  0  0  0  0  0
  -32.9599    2.8279  -42.3058 C   0  0  0  0  0  0  0  0  0  0  0  0
  -32.0300    2.4909  -43.4731 C   0  0  0  0  0  0  0  0  0  0  0  0
  -32.2570    3.4882  -44.6109 C   0  0  0  0  0  0  0  0  0  0  0  0
  -33.7117    3.4071  -45.0781 C   0  0  0  0  0  0  0  0  0  0  0  0
  -34.9106    7.0273  -41.6587 X   0  0  0  0  0  0  0  0  0  0  0  0
  1  2  1  0  0  0  0
  2  3  1  0  0  0  0
  2  7  1  0  0  0  0
  3  4  1  0  0  0  0
  4  5  1  0  0  0  0
  5  6  1  0  0  0  0
  5 13  1  0  0  0  0
  6  7  1  0  0  0  0
  7  8  1  0  0  0  0
  7 12  1  0  0  0  0
  8  9  1  0  0  0  0
  9 10  1  0  0  0  0
 10 11  1  0  0  0  0
 11 12  1  0  0  0  0
M  END
> <Index>
21027

> <PropertyFieldDistance>
nan

$$$$
13034940
BBcorina  12272117083D 1   1.00000     0.00000 
CORINA 4.3.0 0026  30.10.2019
 13 13  0  0  0  0  0  0  0  0999 V2000
  -34.5156    9.3160  -39.9087 C   0  0  0  0  0  0  0  0  0  0  0  0
  -35.3159    8.0488  -39.6010 C   0  0  0  0  0  0  0  0  0  0  0  0
  -36.5276    8.4077  -38.7385 C   0  0  0  0  0  0  0  0  0  0  0  0
  -35.7672    7.4479  -40.8435 O   0  0  0  0  0  0  0  0  0  0  0  0
  -34.9521    6.5487  -41.4168 C   0  0  0  0  0  0  0  0  0  0  0  0
  -33.8965    6.2728  -40.8976 O   0  0  0  0  0  0  0  0  0  0  0  0
  -35.3535    5.8833  -42.7079 C   0  0  0  0  0  0  0  0  0  0  0  0
  -36.6585    5.1099  -42.5008 C   0  0  0  0  0  0  0  0  0  0  0  0
  -37.0291    4.3869  -43.7977 C   0  0  0  0  0  0  0  0  0  0  0  0
  -35.9480    3.4664  -44.1723 N   0  0  0  0  0  0  0  0  0  0  0  0
  -34.6958    4.1916  -44.4226 C   0  0  0  0  0  0  0  0  0  0  0  0
  -34.2559    4.9088  -43.1442 C   0  0  0  0  0  0  0  0  0  0  0  0
  -36.3899    2.5211  -45.5270 X   0  0  0  0  0  0  0  0  0  0  0  0
  1  2  1  0  0  0  0
  2  3  1  0  0  0  0
  2  4  1  0  0  0  0
  4  5  1  0  0  0  0
  5  6  2  0  0  0  0
  5  7  1  0  0  0  0
  7  8  1  0  0  0  0
  7 12  1  0  0  0  0
  8  9  1  0  0  0  0
  9 10  1  0  0  0  0
 10 11  1  0  0  0  0
 10 13  1  0  0  0  0
 11 12  1  0  0  0  0
M  END
> <Index>
21035

> <PropertyFieldDistance>
nan

$$$$
15727054
BBcorina  12272117083D 1   1.00000     0.00000 
CORINA 4.3.0 0026  30.10.2019
 13 13  0  0  0  0  0  0  0  0999 V2000
  -39.3495   -1.5317  -44.3167 N   0  0  0  0  0  0  0  0  0  0  0  0
  -39.1287   -0.0929  -44.1180 C   0  0  0  0  0  0  0  0  0  0  0  0
  -37.6828    0.2555  -44.4770 C   0  0  0  0  0  0  0  0  0  0  0  0
  -37.4626    1.6903  -44.2789 N   0  0  0  0  0  0  0  0  0  0  0  0
  -36.2535    2.2280  -44.5340 C   0  0  0  0  0  0  0  0  0  0  0  0
  -35.3725    1.5422  -45.0157 O   0  0  0  0  0  0  0  0  0  0  0  0
  -36.0207    3.5259  -44.2552 N   0  0  0  0  0  0  0  0  0  0  0  0
  -37.1015    4.4031  -43.7746 C   0  0  0  0  0  0  0  0  0  0  0  0
  -36.6110    5.1266  -42.5153 C   0  0  0  0  0  0  0  0  0  0  0  0
  -35.3572    5.7557  -42.7908 O   0  0  0  0  0  0  0  0  0  0  0  0
  -34.3083    4.8461  -43.1314 C   0  0  0  0  0  0  0  0  0  0  0  0
  -34.6797    4.1080  -44.4227 C   0  0  0  0  0  0  0  0  0  0  0  0
  -40.9569   -1.9646  -43.9259 X   0  0  0  0  0  0  0  0  0  0  0  0
  1  2  1  0  0  0  0
  1 13  1  0  0  0  0
  2  3  1  0  0  0  0
  3  4  1  0  0  0  0
  4  5  1  0  0  0  0
  5  6  2  0  0  0  0
  5  7  1  0  0  0  0
  7  8  1  0  0  0  0
  7 12  1  0  0  0  0
  8  9  1  0  0  0  0
  9 10  1  0  0  0  0
 10 11  1  0  0  0  0
 11 12  1  0  0  0  0
M  END
> <Index>
21041

> <PropertyFieldDistance>
nan

$$$$
15494420
BBcorina  12272117083D 1   1.00000     0.00000 
CORINA 4.3.0 0026  30.10.2019
 14 15  0  0  0  0  0  0  0  0999 V2000
  -36.3951   -1.8428  -47.5486 C   0  0  0  0  0  0  0  0  0  0  0  0
  -35.4148   -0.3168  -47.5176 S   0  0  0  0  0  0  0  0  0  0  0  0
  -36.1552    0.6033  -46.2100 C   0  0  0  0  0  0  0  0  0  0  0  0
  -37.1679    0.1260  -45.5357 N   0  0  0  0  0  0  0  0  0  0  0  0
  -37.5620    1.3166  -44.3890 S   0  0  0  0  0  0  0  0  0  0  0  0
  -36.3245    2.4065  -44.8875 C   0  0  0  0  0  0  0  0  0  0  0  0
  -35.7108    1.7990  -45.8806 N   0  0  0  0  0  0  0  0  0  0  0  0
  -36.0412    3.6536  -44.3615 N   0  0  0  0  0  0  0  0  0  0  0  0
  -36.9586    3.9821  -43.2615 C   0  0  0  0  0  0  0  0  0  0  0  0
  -36.6647    5.3982  -42.7608 C   0  0  0  0  0  0  0  0  0  0  0  0
  -35.2659    5.4775  -42.3171 N   0  0  0  0  0  0  0  0  0  0  0  0
  -34.3481    5.1494  -43.4169 C   0  0  0  0  0  0  0  0  0  0  0  0
  -34.6421    3.7332  -43.9176 C   0  0  0  0  0  0  0  0  0  0  0  0
  -34.9160    7.0198  -41.6665 X   0  0  0  0  0  0  0  0  0  0  0  0
  1  2  1  0  0  0  0
  2  3  1  0  0  0  0
  3  4  2  0  0  0  0
  3  7  1  0  0  0  0
  4  5  1  0  0  0  0
  5  6  1  0  0  0  0
  6  7  2  0  0  0  0
  6  8  1  0  0  0  0
  8  9  1  0  0  0  0
  8 13  1  0  0  0  0
  9 10  1  0  0  0  0
 10 11  1  0  0  0  0
 11 12  1  0  0  0  0
 11 14  1  0  0  0  0
 12 13  1  0  0  0  0
M  END
> <Index>
21046

> <PropertyFieldDistance>
nan

$$$$
13950440
BBcorina  12272117083D 1   1.00000     0.00000 
CORINA 4.3.0 0026  30.10.2019
 13 14  0  0  0  0  0  0  0  0999 V2000
  -35.9868   -0.1582  -47.3971 C   0  0  0  0  0  0  0  0  0  0  0  0
  -36.3558    0.9773  -46.4775 C   0  0  0  0  0  0  0  0  0  0  0  0
  -35.6037    1.4931  -45.5364 N   0  0  0  0  0  0  0  0  0  0  0  0
  -36.3429    2.4760  -44.9792 C   0  0  0  0  0  0  0  0  0  0  0  0
  -37.4886    2.5013  -45.6061 N   0  0  0  0  0  0  0  0  0  0  0  0
  -37.5117    1.6481  -46.4680 O   0  0  0  0  0  0  0  0  0  0  0  0
  -35.9572    3.3054  -43.9346 N   0  0  0  0  0  0  0  0  0  0  0  0
  -37.0244    4.2571  -43.5961 C   0  0  0  0  0  0  0  0  0  0  0  0
  -36.5921    5.0973  -42.3920 C   0  0  0  0  0  0  0  0  0  0  0  0
  -35.3436    5.8028  -42.7133 N   0  0  0  0  0  0  0  0  0  0  0  0
  -34.2763    4.8510  -43.0518 C   0  0  0  0  0  0  0  0  0  0  0  0
  -34.7086    4.0109  -44.2559 C   0  0  0  0  0  0  0  0  0  0  0  0
  -34.8685    6.8242  -41.4268 X   0  0  0  0  0  0  0  0  0  0  0  0
  1  2  1  0  0  0  0
  2  3  2  0  0  0  0
  2  6  1  0  0  0  0
  3  4  1  0  0  0  0
  4  5  2  0  0  0  0
  4  7  1  0  0  0  0
  5  6  1  0  0  0  0
  7  8  1  0  0  0  0
  7 12  1  0  0  0  0
  8  9  1  0  0  0  0
  9 10  1  0  0  0  0
 10 11  1  0  0  0  0
 10 13  1  0  0  0  0
 11 12  1  0  0  0  0
M  END
> <Index>
21049

> <PropertyFieldDistance>
nan

$$$$
15366810
BBcorina  12272117083D 1   1.00000     0.00000 
CORINA 4.3.0 0026  30.10.2019
 13 13  0  0  0  0  0  0  0  0999 V2000
  -35.5547    6.9450  -43.7911 C   0  0  0  0  0  0  0  0  0  0  0  0
  -35.3534    5.8832  -42.7081 C   0  0  0  0  0  0  0  0  0  0  0  0
  -34.9458    6.5588  -41.3972 C   0  0  0  0  0  0  0  0  0  0  0  0
  -33.3995    7.4745  -41.6442 S   0  0  0  0  0  0  0  0  0  0  0  0
  -32.3626    6.5444  -41.9256 O   0  0  0  0  0  0  0  0  0  0  0  0
  -33.6435    8.5378  -42.5547 O   0  0  0  0  0  0  0  0  0  0  0  0
  -33.1135    8.1783  -39.9970 C   0  0  0  0  0  0  0  0  0  0  0  0
  -36.6587    5.1099  -42.5007 C   0  0  0  0  0  0  0  0  0  0  0  0
  -37.0290    4.3869  -43.7977 C   0  0  0  0  0  0  0  0  0  0  0  0
  -35.9480    3.4664  -44.1723 N   0  0  0  0  0  0  0  0  0  0  0  0
  -34.6958    4.1916  -44.4226 C   0  0  0  0  0  0  0  0  0  0  0  0
  -34.2558    4.9088  -43.1443 C   0  0  0  0  0  0  0  0  0  0  0  0
  -36.3899    2.5210  -45.5269 X   0  0  0  0  0  0  0  0  0  0  0  0
  1  2  1  0  0  0  0
  2  3  1  0  0  0  0
  2  8  1  0  0  0  0
  2 12  1  0  0  0  0
  3  4  1  0  0  0  0
  4  5  2  0  0  0  0
  4  6  2  0  0  0  0
  4  7  1  0  0  0  0
  8  9  1  0  0  0  0
  9 10  1  0  0  0  0
 10 11  1  0  0  0  0
 10 13  1  0  0  0  0
 11 12  1  0  0  0  0
M  END
> <Index>
21068

> <PropertyFieldDistance>
nan

$$$$
15425916
BBcorina  12272117083D 1   1.00000     0.00000 
CORINA 4.3.0 0026  30.10.2019
 11 11  0  0  0  0  0  0  0  0999 V2000
  -38.4210    3.9987  -43.8160 C   0  0  0  0  0  0  0  0  0  0  0  0
  -36.9947    4.5502  -43.8666 C   0  0  0  0  0  0  0  0  0  0  0  0
  -36.4717    4.8295  -42.4412 C   0  0  0  0  0  0  0  0  0  0  0  0
  -34.9804    4.4371  -42.4772 C   0  0  0  0  0  0  0  0  0  0  0  0
  -34.7039    3.3076  -41.4829 C   0  0  0  0  0  0  0  0  0  0  0  0
  -33.3339    2.9128  -41.5793 O   0  0  0  0  0  0  0  0  0  0  0  0
  -34.1019    5.6492  -42.1612 C   0  0  0  0  0  0  0  0  0  0  0  0
  -32.7254    5.2798  -42.2652 O   0  0  0  0  0  0  0  0  0  0  0  0
  -34.7276    3.9536  -43.9215 C   0  0  0  0  0  0  0  0  0  0  0  0
  -36.0637    3.5298  -44.4137 N   0  0  0  0  0  0  0  0  0  0  0  0
  -36.1098    3.5118  -46.1229 X   0  0  0  0  0  0  0  0  0  0  0  0
  1  2  1  0  0  0  0
  2  3  1  0  0  0  0
  2 10  1  0  0  0  0
  3  4  1  0  0  0  0
  4  5  1  0  0  0  0
  4  7  1  0  0  0  0
  4  9  1  0  0  0  0
  5  6  1  0  0  0  0
  7  8  1  0  0  0  0
  9 10  1  0  0  0  0
 10 11  1  0  0  0  0
M  END
> <Index>
21070

> <PropertyFieldDistance>
nan

$$$$
14772366
BBcorina  12272117083D 1   1.00000     0.00000 
CORINA 4.3.0 0026  30.10.2019
 15 16  0  0  0  0  0  0  0  0999 V2000
  -36.3495    2.3570  -44.9464 C   0  0  0  0  0  0  0  0  0  0  0  0
  -36.0372    3.6631  -44.3508 N   0  0  0  0  0  0  0  0  0  0  0  0
  -36.9514    3.9683  -43.2428 C   0  0  0  0  0  0  0  0  0  0  0  0
  -36.6923    5.3914  -42.7432 C   0  0  0  0  0  0  0  0  0  0  0  0
  -35.2385    5.5066  -42.2766 C   0  0  0  0  0  0  0  0  0  0  0  0
  -34.3080    5.1368  -43.4352 C   0  0  0  0  0  0  0  0  0  0  0  0
  -34.6363    3.7210  -43.9146 C   0  0  0  0  0  0  0  0  0  0  0  0
  -34.9683    6.8824  -41.8517 N   0  0  0  0  0  0  0  0  0  0  0  0
  -34.5391    7.2626  -40.5007 C   0  0  0  0  0  0  0  0  0  0  0  0
  -34.8011    8.7815  -40.3972 C   0  0  0  0  0  0  0  0  0  0  0  0
  -34.7296    9.2139  -41.8817 C   0  0  0  0  0  0  0  0  0  0  0  0
  -35.0811    7.9586  -42.6492 C   0  0  0  0  0  0  0  0  0  0  0  0
  -35.4114    7.9271  -43.8157 O   0  0  0  0  0  0  0  0  0  0  0  0
  -36.1297    9.0484  -39.8302 N   0  0  0  0  0  0  0  0  0  0  0  0
  -37.3520    8.2761  -40.7433 X   0  0  0  0  0  0  0  0  0  0  0  0
  1  2  1  0  0  0  0
  2  3  1  0  0  0  0
  2  7  1  0  0  0  0
  3  4  1  0  0  0  0
  4  5  1  0  0  0  0
  5  6  1  0  0  0  0
  5  8  1  0  0  0  0
  6  7  1  0  0  0  0
  8  9  1  0  0  0  0
  8 12  1  0  0  0  0
  9 10  1  0  0  0  0
 10 11  1  0  0  0  0
 10 14  1  0  0  0  0
 11 12  1  0  0  0  0
 12 13  2  0  0  0  0
 14 15  1  0  0  0  0
M  END
> <Index>
21082

> <PropertyFieldDistance>
nan

$$$$
15093944
BBcorina  12272117083D 1   1.00000     0.00000 
CORINA 4.3.0 0026  30.10.2019
 12 13  0  0  0  0  0  0  0  0999 V2000
  -36.0511    3.5856  -44.4117 N   0  0  0  0  0  0  0  0  0  0  0  0
  -37.0324    4.5109  -43.8583 C   0  0  0  0  0  0  0  0  0  0  0  0
  -36.4446    4.8360  -42.4674 C   0  0  0  0  0  0  0  0  0  0  0  0
  -37.1963    5.9349  -41.6692 C   0  0  0  0  0  0  0  0  0  0  0  0
  -36.4088    6.3389  -40.4199 C   0  0  0  0  0  0  0  0  0  0  0  0
  -35.3254    7.3613  -40.6597 C   0  0  0  0  0  0  0  0  0  0  0  0
  -34.4423    7.5651  -41.8661 C   0  0  0  0  0  0  0  0  0  0  0  0
  -33.3921    6.5398  -41.5480 C   0  0  0  0  0  0  0  0  0  0  0  0
  -33.9024    5.1301  -41.7049 C   0  0  0  0  0  0  0  0  0  0  0  0
  -34.9429    5.0329  -42.8462 C   0  0  0  0  0  0  0  0  0  0  0  0
  -34.7296    3.9307  -43.9056 C   0  0  0  0  0  0  0  0  0  0  0  0
  -36.0790    3.6130  -46.1213 X   0  0  0  0  0  0  0  0  0  0  0  0
  1  2  1  0  0  0  0
  1 11  1  0  0  0  0
  1 12  1  0  0  0  0
  2  3  1  0  0  0  0
  3  4  1  0  0  0  0
  3 10  1  0  0  0  0
  4  5  1  0  0  0  0
  5  6  1  0  0  0  0
  6  7  1  0  0  0  0
  7  8  1  0  0  0  0
  8  9  1  0  0  0  0
  9 10  1  0  0  0  0
 10 11  1  0  0  0  0
M  END
> <Index>
21096

> <PropertyFieldDistance>
nan

$$$$
13849772
BBcorina  12272117083D 1   1.00000     0.00000 
CORINA 4.3.0 0026  30.10.2019
 14 15  0  0  0  0  0  0  0  0999 V2000
  -36.7538    2.4652  -45.1015 C   0  0  0  0  0  0  0  0  0  0  0  0
  -36.0489    3.5296  -44.3747 N   0  0  0  0  0  0  0  0  0  0  0  0
  -36.5924    3.6987  -43.0522 C   0  0  0  0  0  0  0  0  0  0  0  0
  -36.6409    5.1743  -42.6102 C   0  0  0  0  0  0  0  0  0  0  0  0
  -35.4193    5.9241  -42.9851 N   0  0  0  0  0  0  0  0  0  0  0  0
  -34.1958    5.1874  -42.7796 C   0  0  0  0  0  0  0  0  0  0  0  0
  -33.8224    4.4820  -44.0954 C   0  0  0  0  0  0  0  0  0  0  0  0
  -34.5900    3.2530  -44.3079 C   0  0  0  0  0  0  0  0  0  0  0  0
  -34.3715    2.2466  -43.1634 C   0  0  0  0  0  0  0  0  0  0  0  0
  -32.9062    1.8072  -43.1594 C   0  0  0  0  0  0  0  0  0  0  0  0
  -32.5812    1.2210  -44.4214 O   0  0  0  0  0  0  0  0  0  0  0  0
  -32.7369    2.1070  -45.5316 C   0  0  0  0  0  0  0  0  0  0  0  0
  -34.1955    2.5594  -45.6238 C   0  0  0  0  0  0  0  0  0  0  0  0
  -35.3628    7.4389  -42.1936 X   0  0  0  0  0  0  0  0  0  0  0  0
  1  2  1  0  0  0  0
  2  3  1  0  0  0  0
  2  8  1  0  0  0  0
  3  4  1  0  0  0  0
  4  5  1  0  0  0  0
  5  6  1  0  0  0  0
  5 14  1  0  0  0  0
  6  7  1  0  0  0  0
  7  8  1  0  0  0  0
  8  9  1  0  0  0  0
  8 13  1  0  0  0  0
  9 10  1  0  0  0  0
 10 11  1  0  0  0  0
 11 12  1  0  0  0  0
 12 13  1  0  0  0  0
M  END
> <Index>
21107

> <PropertyFieldDistance>
nan

$$$$
14688080
BBcorina  12272117083D 1   1.00000     0.00000 
CORINA 4.3.0 0026  30.10.2019
 12 12  0  0  0  0  0  0  0  0999 V2000
  -35.5947   -0.5831  -46.7354 N   0  0  0  0  0  0  0  0  0  0  0  0
  -36.3733    0.1915  -45.7598 C   0  0  0  0  0  0  0  0  0  0  0  0
  -35.8039    1.6083  -45.6624 C   0  0  0  0  0  0  0  0  0  0  0  0
  -36.6147    2.4151  -44.6463 C   0  0  0  0  0  0  0  0  0  0  0  0
  -36.0680    3.7754  -44.5528 N   0  0  0  0  0  0  0  0  0  0  0  0
  -36.9627    4.6538  -43.7658 C   0  0  0  0  0  0  0  0  0  0  0  0
  -36.7405    4.5452  -42.2764 C   0  0  0  0  0  0  0  0  0  0  0  0
  -35.7129    5.6158  -41.8391 C   0  0  0  0  0  0  0  0  0  0  0  0
  -34.4534    5.2722  -42.2418 O   0  0  0  0  0  0  0  0  0  0  0  0
  -34.2152    5.1323  -43.6494 C   0  0  0  0  0  0  0  0  0  0  0  0
  -34.6805    3.7539  -44.0558 C   0  0  0  0  0  0  0  0  0  0  0  0
  -36.1993   -2.1765  -46.8754 X   0  0  0  0  0  0  0  0  0  0  0  0
  1  2  1  0  0  0  0
  1 12  1  0  0  0  0
  2  3  1  0  0  0  0
  3  4  1  0  0  0  0
  4  5  1  0  0  0  0
  5  6  1  0  0  0  0
  5 11  1  0  0  0  0
  6  7  1  0  0  0  0
  7  8  1  0  0  0  0
  8  9  1  0  0  0  0
  9 10  1  0  0  0  0
 10 11  1  0  0  0  0
M  END
> <Index>
21109

> <PropertyFieldDistance>
nan

$$$$
14717164
BBcorina  12272117083D 1   1.00000     0.00000 
CORINA 4.3.0 0026  30.10.2019
 11 11  0  0  0  0  0  0  0  0999 V2000
  -32.1204    4.0282  -44.9214 F   0  0  0  0  0  0  0  0  0  0  0  0
  -31.8353    4.6971  -43.7262 C   0  0  0  0  0  0  0  0  0  0  0  0
  -30.6300    5.3950  -43.8583 F   0  0  0  0  0  0  0  0  0  0  0  0
  -32.9631    5.6821  -43.4116 C   0  0  0  0  0  0  0  0  0  0  0  0
  -34.2559    4.9088  -43.1443 C   0  0  0  0  0  0  0  0  0  0  0  0
  -35.3534    5.8832  -42.7079 C   0  0  0  0  0  0  0  0  0  0  0  0
  -36.6586    5.1099  -42.5007 C   0  0  0  0  0  0  0  0  0  0  0  0
  -37.0290    4.3869  -43.7977 C   0  0  0  0  0  0  0  0  0  0  0  0
  -35.9479    3.4664  -44.1723 N   0  0  0  0  0  0  0  0  0  0  0  0
  -34.6959    4.1916  -44.4226 C   0  0  0  0  0  0  0  0  0  0  0  0
  -36.3899    2.5211  -45.5270 X   0  0  0  0  0  0  0  0  0  0  0  0
  1  2  1  0  0  0  0
  2  3  1  0  0  0  0
  2  4  1  0  0  0  0
  4  5  1  0  0  0  0
  5  6  1  0  0  0  0
  5 10  1  0  0  0  0
  6  7  1  0  0  0  0
  7  8  1  0  0  0  0
  8  9  1  0  0  0  0
  9 10  1  0  0  0  0
  9 11  1  0  0  0  0
M  END
> <Index>
21115

> <PropertyFieldDistance>
nan

$$$$
14719020
BBcorina  12272117083D 1   1.00000     0.00000 
CORINA 4.3.0 0026  30.10.2019
 12 13  0  0  0  0  0  0  0  0999 V2000
  -34.7342   -2.2443  -48.2775 F   0  0  0  0  0  0  0  0  0  0  0  0
  -34.8295   -1.0798  -47.5080 C   0  0  0  0  0  0  0  0  0  0  0  0
  -34.0470   -1.0555  -46.3486 F   0  0  0  0  0  0  0  0  0  0  0  0
  -35.0367    0.2365  -48.2456 C   0  0  0  0  0  0  0  0  0  0  0  0
  -34.3557    1.5003  -47.7438 C   0  0  0  0  0  0  0  0  0  0  0  0
  -34.5953    1.6789  -46.2446 C   0  0  0  0  0  0  0  0  0  0  0  0
  -36.1059    1.6538  -45.9847 C   0  0  0  0  0  0  0  0  0  0  0  0
  -36.3933    2.1751  -44.5752 C   0  0  0  0  0  0  0  0  0  0  0  0
  -36.0173    3.5927  -44.4913 N   0  0  0  0  0  0  0  0  0  0  0  0
  -36.6019    0.2132  -46.1103 C   0  0  0  0  0  0  0  0  0  0  0  0
  -36.1724   -0.3840  -47.4471 C   0  0  0  0  0  0  0  0  0  0  0  0
  -36.3230    4.2163  -42.9287 X   0  0  0  0  0  0  0  0  0  0  0  0
  1  2  1  0  0  0  0
  2  3  1  0  0  0  0
  2  4  1  0  0  0  0
  2 11  1  0  0  0  0
  4  5  1  0  0  0  0
  4 11  1  0  0  0  0
  5  6  1  0  0  0  0
  6  7  1  0  0  0  0
  7  8  1  0  0  0  0
  7 10  1  0  0  0  0
  8  9  1  0  0  0  0
  9 12  1  0  0  0  0
 10 11  1  0  0  0  0
M  END
> <Index>
21117

> <PropertyFieldDistance>
nan

$$$$
10150896
BBcorina  12272117083D 1   1.00000     0.00000 
CORINA 4.3.0 0026  30.10.2019
 11 11  0  0  0  0  0  0  0  0999 V2000
  -37.5938    1.9716  -45.2931 N   0  0  0  0  0  0  0  0  0  0  0  0
  -36.3256    2.3393  -45.0231 C   0  0  0  0  0  0  0  0  0  0  0  0
  -35.3976    1.7379  -45.5286 O   0  0  0  0  0  0  0  0  0  0  0  0
  -36.0861    3.3735  -44.1928 N   0  0  0  0  0  0  0  0  0  0  0  0
  -37.1092    4.1836  -43.5158 C   0  0  0  0  0  0  0  0  0  0  0  0
  -36.3708    5.2616  -42.6947 C   0  0  0  0  0  0  0  0  0  0  0  0
  -34.9928    5.3538  -43.4018 C   0  0  0  0  0  0  0  0  0  0  0  0
  -33.9107    5.8362  -42.4337 C   0  0  0  0  0  0  0  0  0  0  0  0
  -32.6319    5.9527  -43.1472 N   0  0  0  0  0  0  0  0  0  0  0  0
  -34.7535    3.8793  -43.8120 C   0  0  0  0  0  0  0  0  0  0  0  0
  -31.3923    6.4905  -42.0991 X   0  0  0  0  0  0  0  0  0  0  0  0
  1  2  1  0  0  0  0
  2  3  2  0  0  0  0
  2  4  1  0  0  0  0
  4  5  1  0  0  0  0
  4 10  1  0  0  0  0
  5  6  1  0  0  0  0
  6  7  1  0  0  0  0
  7  8  1  0  0  0  0
  7 10  1  0  0  0  0
  8  9  1  0  0  0  0
  9 11  1  0  0  0  0
M  END
> <Index>
21125

> <PropertyFieldDistance>
nan

$$$$
15139954
BBcorina  12272117083D 1   1.00000     0.00000 
CORINA 4.3.0 0026  30.10.2019
 13 14  0  0  0  0  0  0  0  0999 V2000
  -35.9479    3.4664  -44.1723 N   0  0  0  0  0  0  0  0  0  0  0  0
  -37.0290    4.3869  -43.7977 C   0  0  0  0  0  0  0  0  0  0  0  0
  -36.6587    5.1099  -42.5007 C   0  0  0  0  0  0  0  0  0  0  0  0
  -35.3534    5.8832  -42.7080 C   0  0  0  0  0  0  0  0  0  0  0  0
  -34.9458    6.5589  -41.3972 C   0  0  0  0  0  0  0  0  0  0  0  0
  -33.7302    7.4181  -41.6318 C   0  0  0  0  0  0  0  0  0  0  0  0
  -32.4367    7.0200  -41.6098 C   0  0  0  0  0  0  0  0  0  0  0  0
  -31.7006    8.1060  -41.8711 N   0  0  0  0  0  0  0  0  0  0  0  0
  -32.4857    9.1115  -42.0358 N   0  0  0  0  0  0  0  0  0  0  0  0
  -33.7120    8.7441  -41.9010 N   0  0  0  0  0  0  0  0  0  0  0  0
  -34.2559    4.9088  -43.1443 C   0  0  0  0  0  0  0  0  0  0  0  0
  -34.6958    4.1916  -44.4226 C   0  0  0  0  0  0  0  0  0  0  0  0
  -36.3899    2.5210  -45.5270 X   0  0  0  0  0  0  0  0  0  0  0  0
  1  2  1  0  0  0  0
  1 12  1  0  0  0  0
  1 13  1  0  0  0  0
  2  3  1  0  0  0  0
  3  4  1  0  0  0  0
  4  5  1  0  0  0  0
  4 11  1  0  0  0  0
  5  6  1  0  0  0  0
  6  7  2  0  0  0  0
  6 10  1  0  0  0  0
  7  8  1  0  0  0  0
  8  9  2  0  0  0  0
  9 10  1  0  0  0  0
 11 12  1  0  0  0  0
M  END
> <Index>
21154

> <PropertyFieldDistance>
nan

$$$$
13818086
BBcorina  12272117083D 1   1.00000     0.00000 
CORINA 4.3.0 0026  30.10.2019
 14 15  0  0  0  0  0  0  0  0999 V2000
  -37.5869    5.7722  -41.6867 C   0  0  0  0  0  0  0  0  0  0  0  0
  -36.5673    4.8277  -42.3265 C   0  0  0  0  0  0  0  0  0  0  0  0
  -37.0060    4.4932  -43.7541 C   0  0  0  0  0  0  0  0  0  0  0  0
  -36.0051    3.6172  -44.3789 N   0  0  0  0  0  0  0  0  0  0  0  0
  -34.6878    4.2678  -44.4138 C   0  0  0  0  0  0  0  0  0  0  0  0
  -34.2493    4.6028  -42.9861 C   0  0  0  0  0  0  0  0  0  0  0  0
  -35.2503    5.4788  -42.3613 N   0  0  0  0  0  0  0  0  0  0  0  0
  -34.8503    5.8623  -41.0866 C   0  0  0  0  0  0  0  0  0  0  0  0
  -34.5436    4.8966  -40.1307 C   0  0  0  0  0  0  0  0  0  0  0  0
  -34.1639    5.2651  -38.9219 N   0  0  0  0  0  0  0  0  0  0  0  0
  -34.0744    6.5490  -38.6177 C   0  0  0  0  0  0  0  0  0  0  0  0
  -34.3774    7.5100  -39.5635 C   0  0  0  0  0  0  0  0  0  0  0  0
  -34.7543    7.1492  -40.7785 N   0  0  0  0  0  0  0  0  0  0  0  0
  -36.4972    3.1454  -45.9471 X   0  0  0  0  0  0  0  0  0  0  0  0
  1  2  1  0  0  0  0
  2  3  1  0  0  0  0
  2  7  1  0  0  0  0
  3  4  1  0  0  0  0
  4  5  1  0  0  0  0
  4 14  1  0  0  0  0
  5  6  1  0  0  0  0
  6  7  1  0  0  0  0
  7  8  1  0  0  0  0
  8  9  2  0  0  0  0
  8 13  1  0  0  0  0
  9 10  1  0  0  0  0
 10 11  2  0  0  0  0
 11 12  1  0  0  0  0
 12 13  2  0  0  0  0
M  END
> <Index>
21164

> <PropertyFieldDistance>
nan

$$$$
11758046
BBcorina  12272117083D 1   1.00000     0.00000 
CORINA 4.3.0 0026  30.10.2019
 14 15  0  0  0  0  0  0  0  0999 V2000
  -37.5551    0.0829  -48.0484 F   0  0  0  0  0  0  0  0  0  0  0  0
  -37.1294    0.8628  -47.0307 C   0  0  0  0  0  0  0  0  0  0  0  0
  -35.8621    0.6815  -46.4893 C   0  0  0  0  0  0  0  0  0  0  0  0
  -35.4661    1.5017  -45.4477 C   0  0  0  0  0  0  0  0  0  0  0  0
  -36.3435    2.4741  -44.9807 C   0  0  0  0  0  0  0  0  0  0  0  0
  -37.5432    2.6166  -45.5222 N   0  0  0  0  0  0  0  0  0  0  0  0
  -37.9497    1.8497  -46.5161 C   0  0  0  0  0  0  0  0  0  0  0  0
  -35.9570    3.3055  -43.9341 N   0  0  0  0  0  0  0  0  0  0  0  0
  -37.0243    4.2573  -43.5957 C   0  0  0  0  0  0  0  0  0  0  0  0
  -36.5920    5.0978  -42.3919 C   0  0  0  0  0  0  0  0  0  0  0  0
  -35.3435    5.8033  -42.7133 N   0  0  0  0  0  0  0  0  0  0  0  0
  -34.2762    4.8515  -43.0517 C   0  0  0  0  0  0  0  0  0  0  0  0
  -34.7086    4.0111  -44.2555 C   0  0  0  0  0  0  0  0  0  0  0  0
  -34.8684    6.8250  -41.4270 X   0  0  0  0  0  0  0  0  0  0  0  0
  1  2  1  0  0  0  0
  2  3  2  0  0  0  0
  2  7  1  0  0  0  0
  3  4  1  0  0  0  0
  4  5  2  0  0  0  0
  5  6  1  0  0  0  0
  5  8  1  0  0  0  0
  6  7  2  0  0  0  0
  8  9  1  0  0  0  0
  8 13  1  0  0  0  0
  9 10  1  0  0  0  0
 10 11  1  0  0  0  0
 11 12  1  0  0  0  0
 11 14  1  0  0  0  0
 12 13  1  0  0  0  0
M  END
> <Index>
21165

> <PropertyFieldDistance>
nan

$$$$
12056378
BBcorina  12272117083D 1   1.00000     0.00000 
CORINA 4.3.0 0026  30.10.2019
 12 13  0  0  0  0  0  0  0  0999 V2000
  -36.0192    3.9414  -44.5845 N   0  0  0  0  0  0  0  0  0  0  0  0
  -36.9723    4.0087  -43.4695 C   0  0  0  0  0  0  0  0  0  0  0  0
  -36.6793    5.2476  -42.6201 C   0  0  0  0  0  0  0  0  0  0  0  0
  -35.2462    5.1676  -42.0869 C   0  0  0  0  0  0  0  0  0  0  0  0
  -34.2770    5.0496  -43.2665 C   0  0  0  0  0  0  0  0  0  0  0  0
  -34.6395    3.8164  -44.0970 C   0  0  0  0  0  0  0  0  0  0  0  0
  -32.9078    4.9148  -42.7628 N   0  0  0  0  0  0  0  0  0  0  0  0
  -32.3119    3.7657  -42.3812 C   0  0  0  0  0  0  0  0  0  0  0  0
  -31.0544    4.0662  -41.9819 C   0  0  0  0  0  0  0  0  0  0  0  0
  -30.8758    5.4462  -42.1243 C   0  0  0  0  0  0  0  0  0  0  0  0
  -31.9862    5.9559  -42.5924 N   0  0  0  0  0  0  0  0  0  0  0  0
  -36.4110    2.6621  -45.6495 X   0  0  0  0  0  0  0  0  0  0  0  0
  1  2  1  0  0  0  0
  1  6  1  0  0  0  0
  1 12  1  0  0  0  0
  2  3  1  0  0  0  0
  3  4  1  0  0  0  0
  4  5  1  0  0  0  0
  5  6  1  0  0  0  0
  5  7  1  0  0  0  0
  7  8  1  0  0  0  0
  7 11  1  0  0  0  0
  8  9  2  0  0  0  0
  9 10  1  0  0  0  0
 10 11  2  0  0  0  0
M  END
> <Index>
21169

> <PropertyFieldDistance>
nan

$$$$
12363658
BBcorina  12272117083D 1   1.00000     0.00000 
CORINA 4.3.0 0026  30.10.2019
 10 10  0  0  0  0  0  0  0  0999 V2000
  -36.3548    1.3252  -45.1508 C   0  0  0  0  0  0  0  0  0  0  0  0
  -36.1268    2.7657  -45.6131 C   0  0  0  0  0  0  0  0  0  0  0  0
  -35.9570    3.6327  -44.4444 N   0  0  0  0  0  0  0  0  0  0  0  0
  -37.0555    4.3250  -43.7604 C   0  0  0  0  0  0  0  0  0  0  0  0
  -36.4873    4.7338  -42.3812 C   0  0  0  0  0  0  0  0  0  0  0  0
  -34.9726    4.8210  -42.6801 C   0  0  0  0  0  0  0  0  0  0  0  0
  -34.1932    4.3505  -41.5272 N   0  0  0  0  0  0  0  0  0  0  0  0
  -34.7745    3.9007  -43.8643 C   0  0  0  0  0  0  0  0  0  0  0  0
  -33.7043    3.4674  -44.2359 O   0  0  0  0  0  0  0  0  0  0  0  0
  -32.6412    5.0679  -41.5026 X   0  0  0  0  0  0  0  0  0  0  0  0
  1  2  1  0  0  0  0
  2  3  1  0  0  0  0
  3  4  1  0  0  0  0
  3  8  1  0  0  0  0
  4  5  1  0  0  0  0
  5  6  1  0  0  0  0
  6  7  1  0  0  0  0
  6  8  1  0  0  0  0
  7 10  1  0  0  0  0
  8  9  2  0  0  0  0
M  END
> <Index>
21170

> <PropertyFieldDistance>
nan

$$$$
13166108
BBcorina  12272117083D 1   1.00000     0.00000 
CORINA 4.3.0 0026  30.10.2019
 11 11  0  0  0  0  0  0  0  0999 V2000
  -36.3171    2.0842  -46.1119 C   0  0  0  0  0  0  0  0  0  0  0  0
  -36.1504    2.0222  -44.5922 C   0  0  0  0  0  0  0  0  0  0  0  0
  -35.9213    3.3718  -44.0706 N   0  0  0  0  0  0  0  0  0  0  0  0
  -37.0837    4.1603  -43.6817 C   0  0  0  0  0  0  0  0  0  0  0  0
  -36.6699    5.3006  -42.7506 C   0  0  0  0  0  0  0  0  0  0  0  0
  -35.5049    6.0620  -43.3945 C   0  0  0  0  0  0  0  0  0  0  0  0
  -34.2810    5.1430  -43.4209 C   0  0  0  0  0  0  0  0  0  0  0  0
  -33.2367    5.7450  -44.2605 N   0  0  0  0  0  0  0  0  0  0  0  0
  -34.6621    3.8017  -43.9810 C   0  0  0  0  0  0  0  0  0  0  0  0
  -33.7770    3.0714  -44.3735 O   0  0  0  0  0  0  0  0  0  0  0  0
  -33.8253    6.0682  -45.8331 X   0  0  0  0  0  0  0  0  0  0  0  0
  1  2  1  0  0  0  0
  2  3  1  0  0  0  0
  3  4  1  0  0  0  0
  3  9  1  0  0  0  0
  4  5  1  0  0  0  0
  5  6  1  0  0  0  0
  6  7  1  0  0  0  0
  7  8  1  0  0  0  0
  7  9  1  0  0  0  0
  8 11  1  0  0  0  0
  9 10  2  0  0  0  0
M  END
> <Index>
21171

> <PropertyFieldDistance>
nan

$$$$
13206598
BBcorina  12272117083D 1   1.00000     0.00000 
CORINA 4.3.0 0026  30.10.2019
 13 14  0  0  0  0  0  0  0  0999 V2000
  -36.0191    3.9414  -44.5845 N   0  0  0  0  0  0  0  0  0  0  0  0
  -36.9723    4.0087  -43.4695 C   0  0  0  0  0  0  0  0  0  0  0  0
  -36.6793    5.2476  -42.6202 C   0  0  0  0  0  0  0  0  0  0  0  0
  -35.2462    5.1676  -42.0870 C   0  0  0  0  0  0  0  0  0  0  0  0
  -34.2770    5.0496  -43.2665 C   0  0  0  0  0  0  0  0  0  0  0  0
  -34.6396    3.8164  -44.0970 C   0  0  0  0  0  0  0  0  0  0  0  0
  -34.9316    6.4133  -41.2993 C   0  0  0  0  0  0  0  0  0  0  0  0
  -34.6021    6.3023  -40.0281 N   0  0  0  0  0  0  0  0  0  0  0  0
  -34.3189    7.3738  -39.3051 C   0  0  0  0  0  0  0  0  0  0  0  0
  -34.3726    8.6235  -39.9022 C   0  0  0  0  0  0  0  0  0  0  0  0
  -34.7231    8.6999  -41.2409 C   0  0  0  0  0  0  0  0  0  0  0  0
  -34.9881    7.5843  -41.9016 N   0  0  0  0  0  0  0  0  0  0  0  0
  -36.4111    2.6621  -45.6494 X   0  0  0  0  0  0  0  0  0  0  0  0
  1  2  1  0  0  0  0
  1  6  1  0  0  0  0
  1 13  1  0  0  0  0
  2  3  1  0  0  0  0
  3  4  1  0  0  0  0
  4  5  1  0  0  0  0
  4  7  1  0  0  0  0
  5  6  1  0  0  0  0
  7  8  2  0  0  0  0
  7 12  1  0  0  0  0
  8  9  1  0  0  0  0
  9 10  2  0  0  0  0
 10 11  1  0  0  0  0
 11 12  2  0  0  0  0
M  END
> <Index>
21172

> <PropertyFieldDistance>
nan

$$$$
12622790
BBcorina  12272117083D 1   1.00000     0.00000 
CORINA 4.3.0 0026  30.10.2019
 13 14  0  0  0  0  0  0  0  0999 V2000
  -36.0050    3.6171  -44.3791 N   0  0  0  0  0  0  0  0  0  0  0  0
  -37.0065    4.4931  -43.7544 C   0  0  0  0  0  0  0  0  0  0  0  0
  -36.5673    4.8276  -42.3268 C   0  0  0  0  0  0  0  0  0  0  0  0
  -35.2503    5.4786  -42.3617 N   0  0  0  0  0  0  0  0  0  0  0  0
  -34.2493    4.6026  -42.9864 C   0  0  0  0  0  0  0  0  0  0  0  0
  -34.6880    4.2680  -44.4139 C   0  0  0  0  0  0  0  0  0  0  0  0
  -34.8498    5.8629  -41.0850 C   0  0  0  0  0  0  0  0  0  0  0  0
  -33.6261    6.5028  -40.8748 C   0  0  0  0  0  0  0  0  0  0  0  0
  -33.2947    6.8552  -39.5792 C   0  0  0  0  0  0  0  0  0  0  0  0
  -34.1259    6.5843  -38.5895 N   0  0  0  0  0  0  0  0  0  0  0  0
  -35.2509    5.9967  -38.7777 N   0  0  0  0  0  0  0  0  0  0  0  0
  -35.6596    5.6267  -39.9744 C   0  0  0  0  0  0  0  0  0  0  0  0
  -36.4970    3.1451  -45.9473 X   0  0  0  0  0  0  0  0  0  0  0  0
  1  2  1  0  0  0  0
  1  6  1  0  0  0  0
  1 13  1  0  0  0  0
  2  3  1  0  0  0  0
  3  4  1  0  0  0  0
  4  5  1  0  0  0  0
  4  7  1  0  0  0  0
  5  6  1  0  0  0  0
  7  8  2  0  0  0  0
  7 12  1  0  0  0  0
  8  9  1  0  0  0  0
  9 10  2  0  0  0  0
 10 11  1  0  0  0  0
 11 12  2  0  0  0  0
M  END
> <Index>
21173

> <PropertyFieldDistance>
nan

$$$$
16929242
BBcorina  12272117083D 1   1.00000     0.00000 
CORINA 4.3.0 0026  30.10.2019
 11 12  0  0  0  0  0  0  0  0999 V2000
  -32.9933    5.5183  -43.2287 N   0  0  0  0  0  0  0  0  0  0  0  0
  -34.3122    4.8810  -43.1181 C   0  0  0  0  0  0  0  0  0  0  0  0
  -35.3849    5.9578  -42.9297 C   0  0  0  0  0  0  0  0  0  0  0  0
  -36.7202    5.2845  -42.5849 C   0  0  0  0  0  0  0  0  0  0  0  0
  -36.9519    4.1681  -43.5703 C   0  0  0  0  0  0  0  0  0  0  0  0
  -38.0575    3.5276  -43.8258 N   0  0  0  0  0  0  0  0  0  0  0  0
  -37.8028    2.6520  -44.7401 N   0  0  0  0  0  0  0  0  0  0  0  0
  -36.5575    2.7242  -45.0694 N   0  0  0  0  0  0  0  0  0  0  0  0
  -36.0001    3.6456  -44.3697 N   0  0  0  0  0  0  0  0  0  0  0  0
  -34.6029    4.0844  -44.3948 C   0  0  0  0  0  0  0  0  0  0  0  0
  -32.9719    6.6667  -44.4956 X   0  0  0  0  0  0  0  0  0  0  0  0
  1  2  1  0  0  0  0
  1 11  1  0  0  0  0
  2  3  1  0  0  0  0
  2 10  1  0  0  0  0
  3  4  1  0  0  0  0
  4  5  1  0  0  0  0
  5  6  2  0  0  0  0
  5  9  1  0  0  0  0
  6  7  1  0  0  0  0
  7  8  2  0  0  0  0
  8  9  1  0  0  0  0
  9 10  1  0  0  0  0
M  END
> <Index>
21177

> <PropertyFieldDistance>
nan

$$$$
12297824
BBcorina  12272117083D 1   1.00000     0.00000 
CORINA 4.3.0 0026  30.10.2019
 13 14  0  0  0  0  0  0  0  0999 V2000
  -36.4985    3.0180  -45.1401 C   0  0  0  0  0  0  0  0  0  0  0  0
  -35.8524    3.1668  -43.8293 N   0  0  0  0  0  0  0  0  0  0  0  0
  -36.7456    3.8284  -42.8762 C   0  0  0  0  0  0  0  0  0  0  0  0
  -36.8586    5.3100  -43.2567 C   0  0  0  0  0  0  0  0  0  0  0  0
  -35.5019    5.9684  -42.9961 C   0  0  0  0  0  0  0  0  0  0  0  0
  -34.4038    5.1156  -43.5801 C   0  0  0  0  0  0  0  0  0  0  0  0
  -33.1487    5.6823  -43.7346 C   0  0  0  0  0  0  0  0  0  0  0  0
  -32.1070    4.9446  -44.2616 C   0  0  0  0  0  0  0  0  0  0  0  0
  -32.3122    3.6277  -44.6296 C   0  0  0  0  0  0  0  0  0  0  0  0
  -33.5576    3.0566  -44.4772 C   0  0  0  0  0  0  0  0  0  0  0  0
  -34.6158    3.7989  -43.9507 C   0  0  0  0  0  0  0  0  0  0  0  0
  -37.8915    5.9564  -42.4360 N   0  0  0  0  0  0  0  0  0  0  0  0
  -37.4558    5.9459  -40.7825 X   0  0  0  0  0  0  0  0  0  0  0  0
  1  2  1  0  0  0  0
  2  3  1  0  0  0  0
  2 11  1  0  0  0  0
  3  4  1  0  0  0  0
  4  5  1  0  0  0  0
  4 12  1  0  0  0  0
  5  6  1  0  0  0  0
  6  7  2  0  0  0  0
  6 11  1  0  0  0  0
  7  8  1  0  0  0  0
  8  9  2  0  0  0  0
  9 10  1  0  0  0  0
 10 11  2  0  0  0  0
 12 13  1  0  0  0  0
M  END
> <Index>
21183

> <PropertyFieldDistance>
nan

$$$$
14772314
BBcorina  12272117083D 1   1.00000     0.00000 
CORINA 4.3.0 0026  30.10.2019
 10 10  0  0  0  0  0  0  0  0999 V2000
  -36.3521    2.4402  -44.9925 C   0  0  0  0  0  0  0  0  0  0  0  0
  -36.0213    3.6882  -44.2917 N   0  0  0  0  0  0  0  0  0  0  0  0
  -36.9208    3.9067  -43.1523 C   0  0  0  0  0  0  0  0  0  0  0  0
  -36.8920    5.3814  -42.7524 C   0  0  0  0  0  0  0  0  0  0  0  0
  -36.9624    6.2575  -44.0021 C   0  0  0  0  0  0  0  0  0  0  0  0
  -35.6851    6.9602  -44.1846 N   0  0  0  0  0  0  0  0  0  0  0  0
  -34.6624    6.0442  -44.7071 C   0  0  0  0  0  0  0  0  0  0  0  0
  -34.1715    5.1289  -43.5865 C   0  0  0  0  0  0  0  0  0  0  0  0
  -34.6171    3.6923  -43.8577 C   0  0  0  0  0  0  0  0  0  0  0  0
  -35.8730    8.3172  -45.2079 X   0  0  0  0  0  0  0  0  0  0  0  0
  1  2  1  0  0  0  0
  2  3  1  0  0  0  0
  2  9  1  0  0  0  0
  3  4  1  0  0  0  0
  4  5  1  0  0  0  0
  5  6  1  0  0  0  0
  6  7  1  0  0  0  0
  6 10  1  0  0  0  0
  7  8  1  0  0  0  0
  8  9  1  0  0  0  0
M  END
> <Index>
21191

> <PropertyFieldDistance>
nan

$$$$
16887720
BBcorina  12272117083D 1   1.00000     0.00000 
CORINA 4.3.0 0026  30.10.2019
 11 12  0  0  0  0  0  0  0  0999 V2000
  -35.0768    6.8644  -41.8160 N   0  0  0  0  0  0  0  0  0  0  0  0
  -35.4221    5.9588  -42.9201 C   0  0  0  0  0  0  0  0  0  0  0  0
  -36.6048    5.0774  -42.5076 C   0  0  0  0  0  0  0  0  0  0  0  0
  -37.1113    4.2980  -43.7267 C   0  0  0  0  0  0  0  0  0  0  0  0
  -35.9729    3.6482  -44.3765 N   0  0  0  0  0  0  0  0  0  0  0  0
  -35.9849    2.5953  -45.2954 N   0  0  0  0  0  0  0  0  0  0  0  0
  -34.7349    2.3511  -45.6004 C   0  0  0  0  0  0  0  0  0  0  0  0
  -33.9495    3.1866  -44.9173 N   0  0  0  0  0  0  0  0  0  0  0  0
  -34.6809    3.9724  -44.1782 C   0  0  0  0  0  0  0  0  0  0  0  0
  -34.2173    5.0676  -43.2488 C   0  0  0  0  0  0  0  0  0  0  0  0
  -34.5380    5.9879  -40.4502 X   0  0  0  0  0  0  0  0  0  0  0  0
  1  2  1  0  0  0  0
  1 11  1  0  0  0  0
  2  3  1  0  0  0  0
  2 10  1  0  0  0  0
  3  4  1  0  0  0  0
  4  5  1  0  0  0  0
  5  6  1  0  0  0  0
  5  9  1  0  0  0  0
  6  7  2  0  0  0  0
  7  8  1  0  0  0  0
  8  9  2  0  0  0  0
  9 10  1  0  0  0  0
M  END
> <Index>
21192

> <PropertyFieldDistance>
nan

$$$$
16515218
BBcorina  12272117083D 1   1.00000     0.00000 
CORINA 4.3.0 0026  30.10.2019
  9  9  0  0  0  0  0  0  0  0999 V2000
  -36.3162    7.0057  -40.7564 O   0  0  0  0  0  0  0  0  0  0  0  0
  -35.1152    6.6798  -41.4590 C   0  0  0  0  0  0  0  0  0  0  0  0
  -35.4045    5.6080  -42.4781 C   0  0  0  0  0  0  0  0  0  0  0  0
  -36.6176    5.1557  -42.5757 C   0  0  0  0  0  0  0  0  0  0  0  0
  -37.0207    4.0806  -43.5431 C   0  0  0  0  0  0  0  0  0  0  0  0
  -36.0030    3.9358  -44.5937 N   0  0  0  0  0  0  0  0  0  0  0  0
  -34.6699    3.7815  -43.9880 C   0  0  0  0  0  0  0  0  0  0  0  0
  -34.2762    5.1100  -43.3372 C   0  0  0  0  0  0  0  0  0  0  0  0
  -36.3663    2.6170  -45.6198 X   0  0  0  0  0  0  0  0  0  0  0  0
  1  2  1  0  0  0  0
  2  3  1  0  0  0  0
  3  4  2  0  0  0  0
  3  8  1  0  0  0  0
  4  5  1  0  0  0  0
  5  6  1  0  0  0  0
  6  7  1  0  0  0  0
  6  9  1  0  0  0  0
  7  8  1  0  0  0  0
M  END
> <Index>
21195

> <PropertyFieldDistance>
nan

$$$$
11946780
BBcorina  12272117083D 1   1.00000     0.00000 
CORINA 4.3.0 0026  30.10.2019
 12 13  0  0  0  0  0  0  0  0999 V2000
  -35.9681    3.4624  -44.1683 N   0  0  0  0  0  0  0  0  0  0  0  0
  -36.9763    4.4849  -43.8410 C   0  0  0  0  0  0  0  0  0  0  0  0
  -36.6657    5.0293  -42.4474 C   0  0  0  0  0  0  0  0  0  0  0  0
  -35.2100    5.4121  -42.3476 C   0  0  0  0  0  0  0  0  0  0  0  0
  -34.3134    4.9888  -43.2083 C   0  0  0  0  0  0  0  0  0  0  0  0
  -32.8641    5.3976  -43.0494 C   0  0  0  0  0  0  0  0  0  0  0  0
  -32.7914    6.8365  -42.5373 C   0  0  0  0  0  0  0  0  0  0  0  0
  -33.7049    6.9715  -41.3447 C   0  0  0  0  0  0  0  0  0  0  0  0
  -33.4210    7.7284  -40.4405 O   0  0  0  0  0  0  0  0  0  0  0  0
  -34.8355    6.2467  -41.2911 N   0  0  0  0  0  0  0  0  0  0  0  0
  -34.6638    4.0982  -44.3726 C   0  0  0  0  0  0  0  0  0  0  0  0
  -36.4333    2.5618  -45.5455 X   0  0  0  0  0  0  0  0  0  0  0  0
  1  2  1  0  0  0  0
  1 11  1  0  0  0  0
  1 12  1  0  0  0  0
  2  3  1  0  0  0  0
  3  4  1  0  0  0  0
  4  5  2  0  0  0  0
  4 10  1  0  0  0  0
  5  6  1  0  0  0  0
  5 11  1  0  0  0  0
  6  7  1  0  0  0  0
  7  8  1  0  0  0  0
  8  9  2  0  0  0  0
  8 10  1  0  0  0  0
M  END
> <Index>
21200

> <PropertyFieldDistance>
nan

$$$$
12622792
BBcorina  12272117083D 1   1.00000     0.00000 
CORINA 4.3.0 0026  30.10.2019
 10 11  0  0  0  0  0  0  0  0999 V2000
  -36.1702    3.4687  -40.4171 N   0  0  0  0  0  0  0  0  0  0  0  0
  -35.8387    3.8794  -41.7881 C   0  0  0  0  0  0  0  0  0  0  0  0
  -36.8235    4.9270  -42.3667 C   0  0  0  0  0  0  0  0  0  0  0  0
  -36.9009    4.6040  -43.8710 C   0  0  0  0  0  0  0  0  0  0  0  0
  -35.9890    3.4600  -44.1096 N   0  0  0  0  0  0  0  0  0  0  0  0
  -35.9460    2.7215  -42.8171 C   0  0  0  0  0  0  0  0  0  0  0  0
  -34.4229    4.4727  -41.9135 C   0  0  0  0  0  0  0  0  0  0  0  0
  -34.2662    5.0634  -43.3178 C   0  0  0  0  0  0  0  0  0  0  0  0
  -34.6078    4.0091  -44.3726 C   0  0  0  0  0  0  0  0  0  0  0  0
  -37.7129    2.7336  -40.3538 X   0  0  0  0  0  0  0  0  0  0  0  0
  1  2  1  0  0  0  0
  1 10  1  0  0  0  0
  2  3  1  0  0  0  0
  2  6  1  0  0  0  0
  2  7  1  0  0  0  0
  3  4  1  0  0  0  0
  4  5  1  0  0  0  0
  5  6  1  0  0  0  0
  5  9  1  0  0  0  0
  7  8  1  0  0  0  0
  8  9  1  0  0  0  0
M  END
> <Index>
21204

> <PropertyFieldDistance>
nan

$$$$
16713934
BBcorina  12272117083D 1   1.00000     0.00000 
CORINA 4.3.0 0026  30.10.2019
 11 12  0  0  0  0  0  0  0  0999 V2000
  -35.9554    3.4606  -44.1930 N   0  0  0  0  0  0  0  0  0  0  0  0
  -37.0250    4.3874  -43.7948 C   0  0  0  0  0  0  0  0  0  0  0  0
  -36.6101    5.1169  -42.5144 C   0  0  0  0  0  0  0  0  0  0  0  0
  -35.3668    5.7881  -42.7357 O   0  0  0  0  0  0  0  0  0  0  0  0
  -34.3026    4.9153  -43.1244 C   0  0  0  0  0  0  0  0  0  0  0  0
  -34.6941    4.1835  -44.4110 C   0  0  0  0  0  0  0  0  0  0  0  0
  -33.0328    5.7333  -43.3681 C   0  0  0  0  0  0  0  0  0  0  0  0
  -32.5338    6.4823  -42.1212 C   0  0  0  0  0  0  0  0  0  0  0  0
  -31.1099    6.0990  -42.5574 C   0  0  0  0  0  0  0  0  0  0  0  0
  -31.7409    4.9026  -43.2926 C   0  0  0  0  0  0  0  0  0  0  0  0
  -36.4010    2.5722  -45.5846 X   0  0  0  0  0  0  0  0  0  0  0  0
  1  2  1  0  0  0  0
  1  6  1  0  0  0  0
  1 11  1  0  0  0  0
  2  3  1  0  0  0  0
  3  4  1  0  0  0  0
  4  5  1  0  0  0  0
  5  6  1  0  0  0  0
  5  7  1  0  0  0  0
  7  8  1  0  0  0  0
  7 10  1  0  0  0  0
  8  9  1  0  0  0  0
  9 10  1  0  0  0  0
M  END
> <Index>
21205

> <PropertyFieldDistance>
nan

$$$$
13316248
BBcorina  12272117083D 1   1.00000     0.00000 
CORINA 4.3.0 0026  30.10.2019
  8  9  0  0  0  0  0  0  0  0999 V2000
  -36.0001    3.8105  -44.5875 N   0  0  0  0  0  0  0  0  0  0  0  0
  -37.0897    4.2683  -43.7107 C   0  0  0  0  0  0  0  0  0  0  0  0
  -36.4277    4.9836  -42.5161 C   0  0  0  0  0  0  0  0  0  0  0  0
  -36.7582    4.3280  -41.1649 C   0  0  0  0  0  0  0  0  0  0  0  0
  -35.7125    3.2550  -41.5086 C   0  0  0  0  0  0  0  0  0  0  0  0
  -35.0392    4.3023  -42.4081 C   0  0  0  0  0  0  0  0  0  0  0  0
  -34.7403    3.8007  -43.8287 C   0  0  0  0  0  0  0  0  0  0  0  0
  -36.3401    2.2631  -45.2308 X   0  0  0  0  0  0  0  0  0  0  0  0
  1  2  1  0  0  0  0
  1  7  1  0  0  0  0
  1  8  1  0  0  0  0
  2  3  1  0  0  0  0
  3  4  1  0  0  0  0
  3  6  1  0  0  0  0
  4  5  1  0  0  0  0
  5  6  1  0  0  0  0
  6  7  1  0  0  0  0
M  END
> <Index>
21226

> <PropertyFieldDistance>
nan

$$$$
15734656
BBcorina  12272117083D 1   1.00000     0.00000 
CORINA 4.3.0 0026  30.10.2019
 11 12  0  0  0  0  0  0  0  0999 V2000
  -35.9832    3.9333  -44.6228 N   0  0  0  0  0  0  0  0  0  0  0  0
  -37.0861    4.1547  -43.6524 C   0  0  0  0  0  0  0  0  0  0  0  0
  -36.4267    5.0335  -42.5586 C   0  0  0  0  0  0  0  0  0  0  0  0
  -34.9989    4.4575  -42.4714 C   0  0  0  0  0  0  0  0  0  0  0  0
  -34.7617    3.7415  -43.8092 C   0  0  0  0  0  0  0  0  0  0  0  0
  -33.9926    5.5910  -42.2936 C   0  0  0  0  0  0  0  0  0  0  0  0
  -34.2308    6.2685  -40.9397 C   0  0  0  0  0  0  0  0  0  0  0  0
  -34.1446    5.2134  -39.8327 C   0  0  0  0  0  0  0  0  0  0  0  0
  -35.1674    4.1081  -40.1076 C   0  0  0  0  0  0  0  0  0  0  0  0
  -34.9119    3.5337  -41.3920 O   0  0  0  0  0  0  0  0  0  0  0  0
  -36.2912    2.5630  -45.5983 X   0  0  0  0  0  0  0  0  0  0  0  0
  1  2  1  0  0  0  0
  1  5  1  0  0  0  0
  1 11  1  0  0  0  0
  2  3  1  0  0  0  0
  3  4  1  0  0  0  0
  4  5  1  0  0  0  0
  4  6  1  0  0  0  0
  4 10  1  0  0  0  0
  6  7  1  0  0  0  0
  7  8  1  0  0  0  0
  8  9  1  0  0  0  0
  9 10  1  0  0  0  0
M  END
> <Index>
21229

> <PropertyFieldDistance>
nan

$$$$
16643602
BBcorina  12272117083D 1   1.00000     0.00000 
CORINA 4.3.0 0026  30.10.2019
  9  9  0  0  0  0  0  0  0  0999 V2000
  -38.3579    4.4480  -43.8869 C   0  0  0  0  0  0  0  0  0  0  0  0
  -36.8519    4.4987  -43.8665 C   0  0  0  0  0  0  0  0  0  0  0  0
  -36.1307    5.5197  -43.4953 N   0  0  0  0  0  0  0  0  0  0  0  0
  -34.8292    5.2122  -43.6118 C   0  0  0  0  0  0  0  0  0  0  0  0
  -34.7364    3.9413  -44.0701 C   0  0  0  0  0  0  0  0  0  0  0  0
  -33.5619    3.2332  -44.3296 N   0  0  0  0  0  0  0  0  0  0  0  0
  -36.0184    3.4846  -44.2291 N   0  0  0  0  0  0  0  0  0  0  0  0
  -36.4172    2.1578  -44.7055 C   0  0  0  0  0  0  0  0  0  0  0  0
  -33.6120    1.5346  -44.5200 X   0  0  0  0  0  0  0  0  0  0  0  0
  1  2  1  0  0  0  0
  2  3  2  0  0  0  0
  2  7  1  0  0  0  0
  3  4  1  0  0  0  0
  4  5  2  0  0  0  0
  5  6  1  0  0  0  0
  5  7  1  0  0  0  0
  6  9  1  0  0  0  0
  7  8  1  0  0  0  0
M  END
> <Index>
21232

> <PropertyFieldDistance>
nan

$$$$
13584872
BBcorina  12272117083D 1   1.00000     0.00000 
CORINA 4.3.0 0026  30.10.2019
 11 12  0  0  0  0  0  0  0  0999 V2000
  -36.0099    4.0177  -44.5349 N   0  0  0  0  0  0  0  0  0  0  0  0
  -36.9982    4.0247  -43.5426 C   0  0  0  0  0  0  0  0  0  0  0  0
  -36.8134    5.1580  -42.5207 C   0  0  0  0  0  0  0  0  0  0  0  0
  -35.7726    4.7451  -41.5104 C   0  0  0  0  0  0  0  0  0  0  0  0
  -34.3673    5.2357  -41.9116 C   0  0  0  0  0  0  0  0  0  0  0  0
  -34.1232    5.0751  -43.4236 C   0  0  0  0  0  0  0  0  0  0  0  0
  -34.5246    6.3318  -44.2132 C   0  0  0  0  0  0  0  0  0  0  0  0
  -33.2381    6.1334  -45.0319 C   0  0  0  0  0  0  0  0  0  0  0  0
  -32.6687    5.3934  -43.8103 C   0  0  0  0  0  0  0  0  0  0  0  0
  -34.6426    3.7882  -44.0159 C   0  0  0  0  0  0  0  0  0  0  0  0
  -36.3914    2.9004  -45.7720 X   0  0  0  0  0  0  0  0  0  0  0  0
  1  2  1  0  0  0  0
  1 10  1  0  0  0  0
  1 11  1  0  0  0  0
  2  3  1  0  0  0  0
  3  4  1  0  0  0  0
  4  5  1  0  0  0  0
  5  6  1  0  0  0  0
  6  7  1  0  0  0  0
  6  9  1  0  0  0  0
  6 10  1  0  0  0  0
  7  8  1  0  0  0  0
  8  9  1  0  0  0  0
M  END
> <Index>
21235

> <PropertyFieldDistance>
nan

$$$$
14949170
BBcorina  12272117083D 1   1.00000     0.00000 
CORINA 4.3.0 0026  30.10.2019
 12 13  0  0  0  0  0  0  0  0999 V2000
  -35.9922    3.6815  -44.4027 N   0  0  0  0  0  0  0  0  0  0  0  0
  -36.9704    4.6165  -43.8014 C   0  0  0  0  0  0  0  0  0  0  0  0
  -36.8161    4.7445  -42.3107 C   0  0  0  0  0  0  0  0  0  0  0  0
  -35.9058    5.9544  -42.0151 C   0  0  0  0  0  0  0  0  0  0  0  0
  -34.4932    5.6419  -42.2080 C   0  0  0  0  0  0  0  0  0  0  0  0
  -34.1910    5.2240  -43.6618 C   0  0  0  0  0  0  0  0  0  0  0  0
  -34.9298    6.1674  -44.6225 C   0  0  0  0  0  0  0  0  0  0  0  0
  -33.8440    6.8912  -45.4465 C   0  0  0  0  0  0  0  0  0  0  0  0
  -32.6212    5.9422  -45.3810 C   0  0  0  0  0  0  0  0  0  0  0  0
  -32.6854    5.3988  -43.9313 C   0  0  0  0  0  0  0  0  0  0  0  0
  -34.6176    3.7970  -43.8612 C   0  0  0  0  0  0  0  0  0  0  0  0
  -36.5522    2.0682  -44.3142 X   0  0  0  0  0  0  0  0  0  0  0  0
  1  2  1  0  0  0  0
  1 11  1  0  0  0  0
  1 12  1  0  0  0  0
  2  3  1  0  0  0  0
  3  4  1  0  0  0  0
  4  5  1  0  0  0  0
  5  6  1  0  0  0  0
  6  7  1  0  0  0  0
  6 10  1  0  0  0  0
  6 11  1  0  0  0  0
  7  8  1  0  0  0  0
  8  9  1  0  0  0  0
  9 10  1  0  0  0  0
M  END
> <Index>
21236

> <PropertyFieldDistance>
nan

$$$$
11985276
BBcorina  12272117083D 1   1.00000     0.00000 
CORINA 4.3.0 0026  30.10.2019
 10 11  0  0  0  0  0  0  0  0999 V2000
  -34.0734    0.5756  -43.0909 N   0  0  0  0  0  0  0  0  0  0  0  0
  -34.3291    1.7085  -43.9904 C   0  0  0  0  0  0  0  0  0  0  0  0
  -33.7020    3.0111  -43.4302 C   0  0  0  0  0  0  0  0  0  0  0  0
  -34.5049    4.0573  -44.0219 O   0  0  0  0  0  0  0  0  0  0  0  0
  -35.8589    3.5954  -44.0114 C   0  0  0  0  0  0  0  0  0  0  0  0
  -36.7747    4.2340  -45.0597 C   0  0  0  0  0  0  0  0  0  0  0  0
  -37.1320    5.2798  -43.9887 C   0  0  0  0  0  0  0  0  0  0  0  0
  -36.7533    4.2217  -42.9374 C   0  0  0  0  0  0  0  0  0  0  0  0
  -35.8381    2.0603  -44.0199 C   0  0  0  0  0  0  0  0  0  0  0  0
  -34.6604    0.8976  -41.5175 X   0  0  0  0  0  0  0  0  0  0  0  0
  1  2  1  0  0  0  0
  1 10  1  0  0  0  0
  2  3  1  0  0  0  0
  2  9  1  0  0  0  0
  3  4  1  0  0  0  0
  4  5  1  0  0  0  0
  5  6  1  0  0  0  0
  5  8  1  0  0  0  0
  5  9  1  0  0  0  0
  6  7  1  0  0  0  0
  7  8  1  0  0  0  0
M  END
> <Index>
21243

> <PropertyFieldDistance>
nan

$$$$
17760552
BBcorina  12272117083D 1   1.00000     0.00000 
CORINA 4.3.0 0026  30.10.2019
 10 11  0  0  0  0  0  0  0  0999 V2000
  -36.3732    2.4588  -45.0711 C   0  0  0  0  0  0  0  0  0  0  0  0
  -35.9752    3.2763  -43.9174 N   0  0  0  0  0  0  0  0  0  0  0  0
  -37.0255    4.2468  -43.5712 C   0  0  0  0  0  0  0  0  0  0  0  0
  -36.5649    5.0900  -42.3807 C   0  0  0  0  0  0  0  0  0  0  0  0
  -35.3525    5.8372  -42.7412 N   0  0  0  0  0  0  0  0  0  0  0  0
  -34.2485    4.9197  -43.0643 C   0  0  0  0  0  0  0  0  0  0  0  0
  -34.7053    3.9716  -44.1771 C   0  0  0  0  0  0  0  0  0  0  0  0
  -34.3939    4.3672  -45.6200 C   0  0  0  0  0  0  0  0  0  0  0  0
  -33.6277    3.2194  -44.9586 C   0  0  0  0  0  0  0  0  0  0  0  0
  -34.9057    6.9185  -41.4940 X   0  0  0  0  0  0  0  0  0  0  0  0
  1  2  1  0  0  0  0
  2  3  1  0  0  0  0
  2  7  1  0  0  0  0
  3  4  1  0  0  0  0
  4  5  1  0  0  0  0
  5  6  1  0  0  0  0
  5 10  1  0  0  0  0
  6  7  1  0  0  0  0
  7  8  1  0  0  0  0
  7  9  1  0  0  0  0
  8  9  1  0  0  0  0
M  END
> <Index>
21248

> <PropertyFieldDistance>
nan

$$$$
12431542
BBcorina  12272117083D 1   1.00000     0.00000 
CORINA 4.3.0 0026  30.10.2019
 12 12  0  0  0  0  0  0  0  0999 V2000
  -31.8961    3.9789  -43.3878 C   0  0  0  0  0  0  0  0  0  0  0  0
  -32.6663    5.1955  -43.6782 N   0  0  0  0  0  0  0  0  0  0  0  0
  -34.0874    5.0083  -43.3567 C   0  0  0  0  0  0  0  0  0  0  0  0
  -34.8371    6.3284  -43.5521 C   0  0  0  0  0  0  0  0  0  0  0  0
  -36.0916    6.3648  -42.6983 C   0  0  0  0  0  0  0  0  0  0  0  0
  -37.1494    5.3615  -43.1200 C   0  0  0  0  0  0  0  0  0  0  0  0
  -36.6713    3.9294  -42.8727 C   0  0  0  0  0  0  0  0  0  0  0  0
  -35.9028    3.4803  -44.0450 N   0  0  0  0  0  0  0  0  0  0  0  0
  -36.4768    2.4846  -44.9535 C   0  0  0  0  0  0  0  0  0  0  0  0
  -34.6871    3.9735  -44.2852 C   0  0  0  0  0  0  0  0  0  0  0  0
  -34.0601    3.5920  -45.2508 O   0  0  0  0  0  0  0  0  0  0  0  0
  -32.4645    5.6743  -45.3074 X   0  0  0  0  0  0  0  0  0  0  0  0
  1  2  1  0  0  0  0
  2  3  1  0  0  0  0
  2 12  1  0  0  0  0
  3  4  1  0  0  0  0
  3 10  1  0  0  0  0
  4  5  1  0  0  0  0
  5  6  1  0  0  0  0
  6  7  1  0  0  0  0
  7  8  1  0  0  0  0
  8  9  1  0  0  0  0
  8 10  1  0  0  0  0
 10 11  2  0  0  0  0
M  END
> <Index>
21258

> <PropertyFieldDistance>
nan

$$$$
17795872
BBcorina  12272117083D 1   1.00000     0.00000 
CORINA 4.3.0 0026  30.10.2019
 11 12  0  0  0  0  0  0  0  0999 V2000
  -38.3342    3.6466  -43.6454 C   0  0  0  0  0  0  0  0  0  0  0  0
  -37.0162    4.4071  -43.8051 C   0  0  0  0  0  0  0  0  0  0  0  0
  -36.6644    5.0982  -42.4859 C   0  0  0  0  0  0  0  0  0  0  0  0
  -35.3569    5.8792  -42.6592 C   0  0  0  0  0  0  0  0  0  0  0  0
  -34.2725    4.9242  -43.1563 C   0  0  0  0  0  0  0  0  0  0  0  0
  -32.8840    5.5684  -43.2505 C   0  0  0  0  0  0  0  0  0  0  0  0
  -32.3233    4.2471  -42.6965 C   0  0  0  0  0  0  0  0  0  0  0  0
  -33.7037    4.0185  -42.0568 C   0  0  0  0  0  0  0  0  0  0  0  0
  -34.6832    4.1684  -44.4182 C   0  0  0  0  0  0  0  0  0  0  0  0
  -35.9509    3.4658  -44.1722 N   0  0  0  0  0  0  0  0  0  0  0  0
  -36.4038    2.5260  -45.5271 X   0  0  0  0  0  0  0  0  0  0  0  0
  1  2  1  0  0  0  0
  2  3  1  0  0  0  0
  2 10  1  0  0  0  0
  3  4  1  0  0  0  0
  4  5  1  0  0  0  0
  5  6  1  0  0  0  0
  5  8  1  0  0  0  0
  5  9  1  0  0  0  0
  6  7  1  0  0  0  0
  7  8  1  0  0  0  0
  9 10  1  0  0  0  0
 10 11  1  0  0  0  0
M  END
> <Index>
21267

> <PropertyFieldDistance>
nan

$$$$
11678576
BBcorina  12272117083D 1   1.00000     0.00000 
CORINA 4.3.0 0026  30.10.2019
 13 14  0  0  0  0  0  0  0  0999 V2000
  -38.6733    1.2981  -47.4827 C   0  0  0  0  0  0  0  0  0  0  0  0
  -37.5203    1.5725  -46.5520 C   0  0  0  0  0  0  0  0  0  0  0  0
  -36.3839    0.9293  -46.5440 N   0  0  0  0  0  0  0  0  0  0  0  0
  -35.5974    1.4979  -45.5290 N   0  0  0  0  0  0  0  0  0  0  0  0
  -36.3417    2.4792  -44.9766 C   0  0  0  0  0  0  0  0  0  0  0  0
  -37.4976    2.5111  -45.6046 N   0  0  0  0  0  0  0  0  0  0  0  0
  -35.9574    3.3050  -43.9355 N   0  0  0  0  0  0  0  0  0  0  0  0
  -37.0246    4.2568  -43.5967 C   0  0  0  0  0  0  0  0  0  0  0  0
  -36.5922    5.0965  -42.3924 C   0  0  0  0  0  0  0  0  0  0  0  0
  -35.3437    5.8020  -42.7132 N   0  0  0  0  0  0  0  0  0  0  0  0
  -34.2765    4.8502  -43.0520 C   0  0  0  0  0  0  0  0  0  0  0  0
  -34.7088    4.0107  -44.2564 C   0  0  0  0  0  0  0  0  0  0  0  0
  -34.8686    6.8229  -41.4263 X   0  0  0  0  0  0  0  0  0  0  0  0
  1  2  1  0  0  0  0
  2  3  2  0  0  0  0
  2  6  1  0  0  0  0
  3  4  1  0  0  0  0
  4  5  1  0  0  0  0
  5  6  2  0  0  0  0
  5  7  1  0  0  0  0
  7  8  1  0  0  0  0
  7 12  1  0  0  0  0
  8  9  1  0  0  0  0
  9 10  1  0  0  0  0
 10 11  1  0  0  0  0
 10 13  1  0  0  0  0
 11 12  1  0  0  0  0
M  END
> <Index>
21270

> <PropertyFieldDistance>
nan

$$$$
13206602
BBcorina  12272117083D 1   1.00000     0.00000 
CORINA 4.3.0 0026  30.10.2019
 13 14  0  0  0  0  0  0  0  0999 V2000
  -36.0191    3.9414  -44.5845 N   0  0  0  0  0  0  0  0  0  0  0  0
  -36.9723    4.0086  -43.4695 C   0  0  0  0  0  0  0  0  0  0  0  0
  -36.6793    5.2476  -42.6202 C   0  0  0  0  0  0  0  0  0  0  0  0
  -35.2462    5.1676  -42.0870 C   0  0  0  0  0  0  0  0  0  0  0  0
  -34.9268    6.4322  -41.2873 C   0  0  0  0  0  0  0  0  0  0  0  0
  -33.5626    6.2995  -40.6610 C   0  0  0  0  0  0  0  0  0  0  0  0
  -33.2899    5.7846  -39.4488 N   0  0  0  0  0  0  0  0  0  0  0  0
  -31.9880    5.8664  -39.3153 C   0  0  0  0  0  0  0  0  0  0  0  0
  -31.5167    6.4212  -40.4361 O   0  0  0  0  0  0  0  0  0  0  0  0
  -32.4336    6.6613  -41.1930 N   0  0  0  0  0  0  0  0  0  0  0  0
  -34.2769    5.0496  -43.2665 C   0  0  0  0  0  0  0  0  0  0  0  0
  -34.6396    3.8164  -44.0970 C   0  0  0  0  0  0  0  0  0  0  0  0
  -36.4110    2.6621  -45.6494 X   0  0  0  0  0  0  0  0  0  0  0  0
  1  2  1  0  0  0  0
  1 12  1  0  0  0  0
  1 13  1  0  0  0  0
  2  3  1  0  0  0  0
  3  4  1  0  0  0  0
  4  5  1  0  0  0  0
  4 11  1  0  0  0  0
  5  6  1  0  0  0  0
  6  7  1  0  0  0  0
  6 10  2  0  0  0  0
  7  8  2  0  0  0  0
  8  9  1  0  0  0  0
  9 10  1  0  0  0  0
 11 12  1  0  0  0  0
M  END
> <Index>
21271

> <PropertyFieldDistance>
nan

$$$$
15246910
BBcorina  12272117083D 1   1.00000     0.00000 
CORINA 4.3.0 0026  30.10.2019
 13 14  0  0  0  0  0  0  0  0999 V2000
  -36.2799    4.1284  -43.1490 C   0  0  0  0  0  0  0  0  0  0  0  0
  -36.0173    3.5927  -44.4913 N   0  0  0  0  0  0  0  0  0  0  0  0
  -36.3933    2.1751  -44.5753 C   0  0  0  0  0  0  0  0  0  0  0  0
  -36.1059    1.6538  -45.9846 C   0  0  0  0  0  0  0  0  0  0  0  0
  -36.9307    2.4478  -47.0018 C   0  0  0  0  0  0  0  0  0  0  0  0
  -36.6845    1.8886  -48.4043 C   0  0  0  0  0  0  0  0  0  0  0  0
  -37.1382    0.4290  -48.4644 C   0  0  0  0  0  0  0  0  0  0  0  0
  -36.3171   -0.4010  -47.4732 C   0  0  0  0  0  0  0  0  0  0  0  0
  -36.4875    0.1774  -46.0701 C   0  0  0  0  0  0  0  0  0  0  0  0
  -35.8535   -0.6840  -44.9707 C   0  0  0  0  0  0  0  0  0  0  0  0
  -37.0931   -0.3634  -44.1177 C   0  0  0  0  0  0  0  0  0  0  0  0
  -37.8509   -0.1385  -45.4375 C   0  0  0  0  0  0  0  0  0  0  0  0
  -34.3807    3.8196  -44.9323 X   0  0  0  0  0  0  0  0  0  0  0  0
  1  2  1  0  0  0  0
  2  3  1  0  0  0  0
  2 13  1  0  0  0  0
  3  4  1  0  0  0  0
  4  5  1  0  0  0  0
  4  9  1  0  0  0  0
  5  6  1  0  0  0  0
  6  7  1  0  0  0  0
  7  8  1  0  0  0  0
  8  9  1  0  0  0  0
  9 10  1  0  0  0  0
  9 12  1  0  0  0  0
 10 11  1  0  0  0  0
 11 12  1  0  0  0  0
M  END
> <Index>
21293

> <PropertyFieldDistance>
nan

$$$$
14586572
BBcorina  12272117083D 1   1.00000     0.00000 
CORINA 4.3.0 0026  30.10.2019
 11 11  0  0  0  0  0  0  0  0999 V2000
  -35.1165    4.0457  -41.2613 F   0  0  0  0  0  0  0  0  0  0  0  0
  -35.2462    5.1676  -42.0870 C   0  0  0  0  0  0  0  0  0  0  0  0
  -34.9542    6.3240  -41.3557 F   0  0  0  0  0  0  0  0  0  0  0  0
  -36.6793    5.2476  -42.6202 C   0  0  0  0  0  0  0  0  0  0  0  0
  -36.9723    4.0087  -43.4694 C   0  0  0  0  0  0  0  0  0  0  0  0
  -36.0191    3.9414  -44.5846 N   0  0  0  0  0  0  0  0  0  0  0  0
  -34.6396    3.8164  -44.0970 C   0  0  0  0  0  0  0  0  0  0  0  0
  -34.2770    5.0496  -43.2665 C   0  0  0  0  0  0  0  0  0  0  0  0
  -32.9013    4.9142  -42.7605 C   0  0  0  0  0  0  0  0  0  0  0  0
  -31.8397    4.8097  -42.3700 N   0  0  0  0  0  0  0  0  0  0  0  0
  -36.4110    2.6621  -45.6494 X   0  0  0  0  0  0  0  0  0  0  0  0
  1  2  1  0  0  0  0
  2  3  1  0  0  0  0
  2  4  1  0  0  0  0
  2  8  1  0  0  0  0
  4  5  1  0  0  0  0
  5  6  1  0  0  0  0
  6  7  1  0  0  0  0
  6 11  1  0  0  0  0
  7  8  1  0  0  0  0
  8  9  1  0  0  0  0
  9 10  3  0  0  0  0
M  END
> <Index>
21304

> <PropertyFieldDistance>
nan

$$$$
14577602
BBcorina  12272117083D 1   1.00000     0.00000 
CORINA 4.3.0 0026  30.10.2019
 12 13  0  0  0  0  0  0  0  0999 V2000
  -34.2957    8.3600  -39.4068 O   0  0  0  0  0  0  0  0  0  0  0  0
  -34.4493    6.9399  -39.3656 C   0  0  0  0  0  0  0  0  0  0  0  0
  -35.7147    6.4240  -40.0652 C   0  0  0  0  0  0  0  0  0  0  0  0
  -34.9395    6.3818  -41.3192 N   0  0  0  0  0  0  0  0  0  0  0  0
  -33.7282    6.1964  -40.4986 C   0  0  0  0  0  0  0  0  0  0  0  0
  -35.2462    5.1675  -42.0870 C   0  0  0  0  0  0  0  0  0  0  0  0
  -36.6793    5.2476  -42.6202 C   0  0  0  0  0  0  0  0  0  0  0  0
  -36.9723    4.0086  -43.4695 C   0  0  0  0  0  0  0  0  0  0  0  0
  -36.0192    3.9414  -44.5845 N   0  0  0  0  0  0  0  0  0  0  0  0
  -34.6396    3.8164  -44.0970 C   0  0  0  0  0  0  0  0  0  0  0  0
  -34.2770    5.0496  -43.2665 C   0  0  0  0  0  0  0  0  0  0  0  0
  -36.4110    2.6622  -45.6495 X   0  0  0  0  0  0  0  0  0  0  0  0
  1  2  1  0  0  0  0
  2  3  1  0  0  0  0
  2  5  1  0  0  0  0
  3  4  1  0  0  0  0
  4  5  1  0  0  0  0
  4  6  1  0  0  0  0
  6  7  1  0  0  0  0
  6 11  1  0  0  0  0
  7  8  1  0  0  0  0
  8  9  1  0  0  0  0
  9 10  1  0  0  0  0
  9 12  1  0  0  0  0
 10 11  1  0  0  0  0
M  END
> <Index>
21311

> <PropertyFieldDistance>
nan

$$$$
15421612
BBcorina  12272117083D 1   1.00000     0.00000 
CORINA 4.3.0 0026  30.10.2019
 12 14  0  0  0  0  0  0  0  0999 V2000
  -34.9758    6.1394  -43.5745 N   0  0  0  0  0  0  0  0  0  0  0  0
  -34.9550    5.2679  -44.7568 C   0  0  0  0  0  0  0  0  0  0  0  0
  -34.0511    4.0315  -44.5950 C   0  0  0  0  0  0  0  0  0  0  0  0
  -35.2808    3.3139  -44.0475 C   0  0  0  0  0  0  0  0  0  0  0  0
  -36.1482    4.2966  -44.8272 C   0  0  0  0  0  0  0  0  0  0  0  0
  -35.4470    3.3289  -42.5222 C   0  0  0  0  0  0  0  0  0  0  0  0
  -35.6745    1.8293  -42.1464 C   0  0  0  0  0  0  0  0  0  0  0  0
  -37.0955    1.5029  -42.6997 C   0  0  0  0  0  0  0  0  0  0  0  0
  -36.9267    1.4951  -44.2398 C   0  0  0  0  0  0  0  0  0  0  0  0
  -35.4203    1.8305  -44.4716 C   0  0  0  0  0  0  0  0  0  0  0  0
  -34.7787    1.1202  -43.2242 C   0  0  0  0  0  0  0  0  0  0  0  0
  -35.4183    7.7360  -43.9977 X   0  0  0  0  0  0  0  0  0  0  0  0
  1  2  1  0  0  0  0
  1 12  1  0  0  0  0
  2  3  1  0  0  0  0
  2  5  1  0  0  0  0
  3  4  1  0  0  0  0
  4  5  1  0  0  0  0
  4  6  1  0  0  0  0
  4 10  1  0  0  0  0
  6  7  1  0  0  0  0
  7  8  1  0  0  0  0
  7 11  1  0  0  0  0
  8  9  1  0  0  0  0
  9 10  1  0  0  0  0
 10 11  1  0  0  0  0
M  END
> <Index>
21320

> <PropertyFieldDistance>
nan

$$$$
15416484
BBcorina  12272117083D 1   1.00000     0.00000 
CORINA 4.3.0 0026  30.10.2019
 12 12  0  0  0  0  0  0  0  0999 V2000
  -34.2838    1.3215  -49.9229 F   0  0  0  0  0  0  0  0  0  0  0  0
  -34.5415    0.9388  -48.6021 C   0  0  0  0  0  0  0  0  0  0  0  0
  -33.5877   -0.0078  -48.2130 F   0  0  0  0  0  0  0  0  0  0  0  0
  -35.9414    0.2949  -48.5329 C   0  0  0  0  0  0  0  0  0  0  0  0
  -36.0165   -0.5531  -47.2921 C   0  0  0  0  0  0  0  0  0  0  0  0
  -36.6203    0.2057  -46.0950 C   0  0  0  0  0  0  0  0  0  0  0  0
  -36.1059    1.6538  -45.9847 C   0  0  0  0  0  0  0  0  0  0  0  0
  -36.3933    2.1751  -44.5752 C   0  0  0  0  0  0  0  0  0  0  0  0
  -36.0173    3.5927  -44.4913 N   0  0  0  0  0  0  0  0  0  0  0  0
  -34.6283    1.7601  -46.2525 C   0  0  0  0  0  0  0  0  0  0  0  0
  -34.4248    2.1067  -47.7416 C   0  0  0  0  0  0  0  0  0  0  0  0
  -36.3229    4.2163  -42.9288 X   0  0  0  0  0  0  0  0  0  0  0  0
  1  2  1  0  0  0  0
  2  3  1  0  0  0  0
  2  4  1  0  0  0  0
  2 11  1  0  0  0  0
  4  5  1  0  0  0  0
  5  6  1  0  0  0  0
  6  7  1  0  0  0  0
  7  8  1  0  0  0  0
  7 10  1  0  0  0  0
  8  9  1  0  0  0  0
  9 12  1  0  0  0  0
 10 11  1  0  0  0  0
M  END
> <Index>
21331

> <PropertyFieldDistance>
nan

$$$$
11952150
BBcorina  12272117083D 1   1.00000     0.00000 
CORINA 4.3.0 0026  30.10.2019
 10 11  0  0  0  0  0  0  0  0999 V2000
  -36.7082    5.2701  -43.8043 F   0  0  0  0  0  0  0  0  0  0  0  0
  -37.3942    4.0510  -43.7821 C   0  0  0  0  0  0  0  0  0  0  0  0
  -38.7900    4.1450  -43.7750 F   0  0  0  0  0  0  0  0  0  0  0  0
  -36.7700    2.8763  -44.5380 C   0  0  0  0  0  0  0  0  0  0  0  0
  -35.2999    2.9986  -44.9894 C   0  0  0  0  0  0  0  0  0  0  0  0
  -34.4872    2.4540  -43.7886 C   0  0  0  0  0  0  0  0  0  0  0  0
  -35.2768    2.9856  -42.5667 C   0  0  0  0  0  0  0  0  0  0  0  0
  -36.7580    2.8680  -42.9993 C   0  0  0  0  0  0  0  0  0  0  0  0
  -33.1200    2.9913  -43.7988 N   0  0  0  0  0  0  0  0  0  0  0  0
  -33.1332    4.7010  -43.7699 X   0  0  0  0  0  0  0  0  0  0  0  0
  1  2  1  0  0  0  0
  2  3  1  0  0  0  0
  2  4  1  0  0  0  0
  2  8  1  0  0  0  0
  4  5  1  0  0  0  0
  4  8  1  0  0  0  0
  5  6  1  0  0  0  0
  6  7  1  0  0  0  0
  6  9  1  0  0  0  0
  7  8  1  0  0  0  0
  9 10  1  0  0  0  0
M  END
> <Index>
21334

> <PropertyFieldDistance>
nan

$$$$
9706896
BBcorina  12272117083D 1   1.00000     0.00000 
CORINA 4.3.0 0026  30.10.2019
  8  8  0  0  0  0  0  0  0  0999 V2000
  -32.8920    5.4128  -43.0209 C   0  0  0  0  0  0  0  0  0  0  0  0
  -34.3245    4.9848  -43.2092 C   0  0  0  0  0  0  0  0  0  0  0  0
  -35.2103    5.4042  -42.3577 C   0  0  0  0  0  0  0  0  0  0  0  0
  -36.6647    5.0347  -42.4443 C   0  0  0  0  0  0  0  0  0  0  0  0
  -36.9746    4.4839  -43.8386 C   0  0  0  0  0  0  0  0  0  0  0  0
  -35.9673    3.4649  -44.1733 N   0  0  0  0  0  0  0  0  0  0  0  0
  -34.6561    4.0952  -44.3723 C   0  0  0  0  0  0  0  0  0  0  0  0
  -35.8902    2.2583  -42.9640 X   0  0  0  0  0  0  0  0  0  0  0  0
  1  2  1  0  0  0  0
  2  3  2  0  0  0  0
  2  7  1  0  0  0  0
  3  4  1  0  0  0  0
  4  5  1  0  0  0  0
  5  6  1  0  0  0  0
  6  7  1  0  0  0  0
  6  8  1  0  0  0  0
M  END
> <Index>
21337

> <PropertyFieldDistance>
nan

$$$$
15089056
BBcorina  12272117083D 1   1.00000     0.00000 
CORINA 4.3.0 0026  30.10.2019
 13 13  0  0  0  0  0  0  0  0999 V2000
  -35.0607    7.5529  -42.1140 F   0  0  0  0  0  0  0  0  0  0  0  0
  -34.9268    6.4322  -41.2873 C   0  0  0  0  0  0  0  0  0  0  0  0
  -35.8129    6.5390  -40.2100 F   0  0  0  0  0  0  0  0  0  0  0  0
  -33.6148    6.3612  -40.8068 F   0  0  0  0  0  0  0  0  0  0  0  0
  -35.2462    5.1675  -42.0869 C   0  0  0  0  0  0  0  0  0  0  0  0
  -36.6793    5.2476  -42.6202 C   0  0  0  0  0  0  0  0  0  0  0  0
  -36.9723    4.0086  -43.4695 C   0  0  0  0  0  0  0  0  0  0  0  0
  -36.0192    3.9414  -44.5845 N   0  0  0  0  0  0  0  0  0  0  0  0
  -34.6396    3.8164  -44.0970 C   0  0  0  0  0  0  0  0  0  0  0  0
  -34.2769    5.0495  -43.2665 C   0  0  0  0  0  0  0  0  0  0  0  0
  -34.3711    6.1946  -44.0647 F   0  0  0  0  0  0  0  0  0  0  0  0
  -32.9695    4.9208  -42.7856 F   0  0  0  0  0  0  0  0  0  0  0  0
  -36.4111    2.6622  -45.6495 X   0  0  0  0  0  0  0  0  0  0  0  0
  1  2  1  0  0  0  0
  2  3  1  0  0  0  0
  2  4  1  0  0  0  0
  2  5  1  0  0  0  0
  5  6  1  0  0  0  0
  5 10  1  0  0  0  0
  6  7  1  0  0  0  0
  7  8  1  0  0  0  0
  8  9  1  0  0  0  0
  8 13  1  0  0  0  0
  9 10  1  0  0  0  0
 10 11  1  0  0  0  0
 10 12  1  0  0  0  0
M  END
> <Index>
21350

> <PropertyFieldDistance>
nan

$$$$
16492280
BBcorina  12272117083D 1   1.00000     0.00000 
CORINA 4.3.0 0026  30.10.2019
 12 13  0  0  0  0  0  0  0  0999 V2000
  -35.4061   -1.6734  -47.6213 C   0  0  0  0  0  0  0  0  0  0  0  0
  -35.6069   -0.1694  -47.4248 C   0  0  0  0  0  0  0  0  0  0  0  0
  -36.4717    0.1540  -46.1773 C   0  0  0  0  0  0  0  0  0  0  0  0
  -36.1059    1.6538  -45.9846 C   0  0  0  0  0  0  0  0  0  0  0  0
  -36.3933    2.1751  -44.5753 C   0  0  0  0  0  0  0  0  0  0  0  0
  -36.0173    3.5927  -44.4913 N   0  0  0  0  0  0  0  0  0  0  0  0
  -34.6013    1.6590  -46.3482 C   0  0  0  0  0  0  0  0  0  0  0  0
  -34.3654    0.5257  -47.1928 O   0  0  0  0  0  0  0  0  0  0  0  0
  -36.2971    0.5026  -48.6249 C   0  0  0  0  0  0  0  0  0  0  0  0
  -36.2417    2.0214  -48.4497 C   0  0  0  0  0  0  0  0  0  0  0  0
  -36.8402    2.4233  -47.0986 C   0  0  0  0  0  0  0  0  0  0  0  0
  -36.3230    4.2164  -42.9287 X   0  0  0  0  0  0  0  0  0  0  0  0
  1  2  1  0  0  0  0
  2  3  1  0  0  0  0
  2  8  1  0  0  0  0
  2  9  1  0  0  0  0
  3  4  1  0  0  0  0
  4  5  1  0  0  0  0
  4  7  1  0  0  0  0
  4 11  1  0  0  0  0
  5  6  1  0  0  0  0
  6 12  1  0  0  0  0
  7  8  1  0  0  0  0
  9 10  1  0  0  0  0
 10 11  1  0  0  0  0
M  END
> <Index>
21382

> <PropertyFieldDistance>
nan

$$$$
15421772
BBcorina  12272117083D 1   1.00000     0.00000 
CORINA 4.3.0 0026  30.10.2019
 12 13  0  0  0  0  0  0  0  0999 V2000
  -35.8567    3.5527  -44.1692 N   0  0  0  0  0  0  0  0  0  0  0  0
  -37.1111    4.1343  -43.6434 C   0  0  0  0  0  0  0  0  0  0  0  0
  -36.8793    5.2358  -42.5924 C   0  0  0  0  0  0  0  0  0  0  0  0
  -35.7953    4.8939  -41.6082 C   0  0  0  0  0  0  0  0  0  0  0  0
  -34.4448    5.4414  -42.1311 C   0  0  0  0  0  0  0  0  0  0  0  0
  -33.4803    5.5277  -40.9271 C   0  0  0  0  0  0  0  0  0  0  0  0
  -33.1593    7.0352  -40.7947 C   0  0  0  0  0  0  0  0  0  0  0  0
  -33.5143    7.5659  -42.2092 C   0  0  0  0  0  0  0  0  0  0  0  0
  -34.6781    6.7961  -42.5741 O   0  0  0  0  0  0  0  0  0  0  0  0
  -33.9078    4.6050  -43.2030 C   0  0  0  0  0  0  0  0  0  0  0  0
  -34.8323    4.5358  -44.4297 C   0  0  0  0  0  0  0  0  0  0  0  0
  -36.1577    2.5991  -45.5563 X   0  0  0  0  0  0  0  0  0  0  0  0
  1  2  1  0  0  0  0
  1 11  1  0  0  0  0
  1 12  1  0  0  0  0
  2  3  1  0  0  0  0
  3  4  1  0  0  0  0
  4  5  1  0  0  0  0
  5  6  1  0  0  0  0
  5  9  1  0  0  0  0
  5 10  1  0  0  0  0
  6  7  1  0  0  0  0
  7  8  1  0  0  0  0
  8  9  1  0  0  0  0
 10 11  1  0  0  0  0
M  END
> <Index>
21383

> <PropertyFieldDistance>
nan

$$$$
15565666
BBcorina  12272117083D 1   1.00000     0.00000 
CORINA 4.3.0 0026  30.10.2019
 12 13  0  0  0  0  0  0  0  0999 V2000
  -39.3317    3.8050  -41.5020 F   0  0  0  0  0  0  0  0  0  0  0  0
  -38.0992    3.7956  -40.8403 C   0  0  0  0  0  0  0  0  0  0  0  0
  -38.3118    3.6895  -39.4616 F   0  0  0  0  0  0  0  0  0  0  0  0
  -37.3503    5.0952  -41.1404 C   0  0  0  0  0  0  0  0  0  0  0  0
  -37.1537    5.2327  -42.6527 C   0  0  0  0  0  0  0  0  0  0  0  0
  -36.3853    4.0181  -43.1728 C   0  0  0  0  0  0  0  0  0  0  0  0
  -34.8966    4.0385  -42.8104 C   0  0  0  0  0  0  0  0  0  0  0  0
  -34.7225    3.4795  -44.2300 C   0  0  0  0  0  0  0  0  0  0  0  0
  -35.9961    4.1327  -44.5875 N   0  0  0  0  0  0  0  0  0  0  0  0
  -37.0744    2.6960  -42.8365 C   0  0  0  0  0  0  0  0  0  0  0  0
  -37.2724    2.6017  -41.3211 C   0  0  0  0  0  0  0  0  0  0  0  0
  -36.9531    3.1125  -45.5710 X   0  0  0  0  0  0  0  0  0  0  0  0
  1  2  1  0  0  0  0
  2  3  1  0  0  0  0
  2  4  1  0  0  0  0
  2 11  1  0  0  0  0
  4  5  1  0  0  0  0
  5  6  1  0  0  0  0
  6  7  1  0  0  0  0
  6  9  1  0  0  0  0
  6 10  1  0  0  0  0
  7  8  1  0  0  0  0
  8  9  1  0  0  0  0
  9 12  1  0  0  0  0
 10 11  1  0  0  0  0
M  END
> <Index>
21390

> <PropertyFieldDistance>
nan

$$$$
14772354
BBcorina  12272117083D 1   1.00000     0.00000 
CORINA 4.3.0 0026  30.10.2019
 12 14  0  0  0  0  0  0  0  0999 V2000
  -36.0145    4.4189  -44.6037 N   0  0  0  0  0  0  0  0  0  0  0  0
  -36.9175    4.7393  -43.4720 C   0  0  0  0  0  0  0  0  0  0  0  0
  -36.2296    4.1198  -42.2162 C   0  0  0  0  0  0  0  0  0  0  0  0
  -35.5541    2.8653  -42.8772 C   0  0  0  0  0  0  0  0  0  0  0  0
  -34.8474    3.6945  -44.0087 C   0  0  0  0  0  0  0  0  0  0  0  0
  -34.1343    4.7736  -43.1363 C   0  0  0  0  0  0  0  0  0  0  0  0
  -35.0387    4.9960  -41.9825 N   0  0  0  0  0  0  0  0  0  0  0  0
  -35.4341    6.4077  -41.8880 C   0  0  0  0  0  0  0  0  0  0  0  0
  -34.3088    7.3307  -41.3916 C   0  0  0  0  0  0  0  0  0  0  0  0
  -35.3810    8.0656  -40.5699 C   0  0  0  0  0  0  0  0  0  0  0  0
  -36.1834    6.7540  -40.5905 C   0  0  0  0  0  0  0  0  0  0  0  0
  -35.5086    5.8418  -45.4058 X   0  0  0  0  0  0  0  0  0  0  0  0
  1  2  1  0  0  0  0
  1  5  1  0  0  0  0
  1 12  1  0  0  0  0
  2  3  1  0  0  0  0
  3  4  1  0  0  0  0
  3  7  1  0  0  0  0
  4  5  1  0  0  0  0
  5  6  1  0  0  0  0
  6  7  1  0  0  0  0
  7  8  1  0  0  0  0
  8  9  1  0  0  0  0
  8 11  1  0  0  0  0
  9 10  1  0  0  0  0
 10 11  1  0  0  0  0
M  END
> <Index>
21394

> <PropertyFieldDistance>
nan

$$$$
14772360
BBcorina  12272117083D 1   1.00000     0.00000 
CORINA 4.3.0 0026  30.10.2019
 14 15  0  0  0  0  0  0  0  0999 V2000
  -34.9299    0.1115  -47.7101 Cl  0  0  0  0  0  0  0  0  0  0  0  0
  -35.8734    0.7377  -46.3943 C   0  0  0  0  0  0  0  0  0  0  0  0
  -36.8665    0.0196  -45.8916 N   0  0  0  0  0  0  0  0  0  0  0  0
  -37.5879    0.4932  -44.8887 C   0  0  0  0  0  0  0  0  0  0  0  0
  -37.3172    1.6821  -44.3816 N   0  0  0  0  0  0  0  0  0  0  0  0
  -36.3236    2.4090  -44.8864 C   0  0  0  0  0  0  0  0  0  0  0  0
  -35.5999    1.9308  -45.8943 N   0  0  0  0  0  0  0  0  0  0  0  0
  -36.0411    3.6533  -44.3614 N   0  0  0  0  0  0  0  0  0  0  0  0
  -36.9588    3.9817  -43.2617 C   0  0  0  0  0  0  0  0  0  0  0  0
  -36.6648    5.3978  -42.7610 C   0  0  0  0  0  0  0  0  0  0  0  0
  -35.2660    5.4771  -42.3173 N   0  0  0  0  0  0  0  0  0  0  0  0
  -34.3483    5.1488  -43.4172 C   0  0  0  0  0  0  0  0  0  0  0  0
  -34.6424    3.7327  -43.9179 C   0  0  0  0  0  0  0  0  0  0  0  0
  -34.9160    7.0194  -41.6668 X   0  0  0  0  0  0  0  0  0  0  0  0
  1  2  1  0  0  0  0
  2  3  2  0  0  0  0
  2  7  1  0  0  0  0
  3  4  1  0  0  0  0
  4  5  2  0  0  0  0
  5  6  1  0  0  0  0
  6  7  2  0  0  0  0
  6  8  1  0  0  0  0
  8  9  1  0  0  0  0
  8 13  1  0  0  0  0
  9 10  1  0  0  0  0
 10 11  1  0  0  0  0
 11 12  1  0  0  0  0
 11 14  1  0  0  0  0
 12 13  1  0  0  0  0
M  END
> <Index>
21401

> <PropertyFieldDistance>
nan

$$$$
14780552
BBcorina  12272117083D 1   1.00000     0.00000 
CORINA 4.3.0 0026  30.10.2019
 12 12  0  0  0  0  0  0  0  0999 V2000
  -36.4887    4.1729  -41.4758 F   0  0  0  0  0  0  0  0  0  0  0  0
  -36.6587    5.1099  -42.5008 C   0  0  0  0  0  0  0  0  0  0  0  0
  -37.6799    6.0015  -42.1550 F   0  0  0  0  0  0  0  0  0  0  0  0
  -37.0290    4.3869  -43.7977 C   0  0  0  0  0  0  0  0  0  0  0  0
  -35.9480    3.4664  -44.1723 N   0  0  0  0  0  0  0  0  0  0  0  0
  -34.6958    4.1916  -44.4226 C   0  0  0  0  0  0  0  0  0  0  0  0
  -34.2558    4.9088  -43.1443 C   0  0  0  0  0  0  0  0  0  0  0  0
  -35.3534    5.8832  -42.7080 C   0  0  0  0  0  0  0  0  0  0  0  0
  -34.9458    6.5588  -41.3972 C   0  0  0  0  0  0  0  0  0  0  0  0
  -35.9433    7.5811  -41.0411 C   0  0  0  0  0  0  0  0  0  0  0  0
  -36.7131    8.3700  -40.7665 N   0  0  0  0  0  0  0  0  0  0  0  0
  -36.3899    2.5211  -45.5270 X   0  0  0  0  0  0  0  0  0  0  0  0
  1  2  1  0  0  0  0
  2  3  1  0  0  0  0
  2  4  1  0  0  0  0
  2  8  1  0  0  0  0
  4  5  1  0  0  0  0
  5  6  1  0  0  0  0
  5 12  1  0  0  0  0
  6  7  1  0  0  0  0
  7  8  1  0  0  0  0
  8  9  1  0  0  0  0
  9 10  1  0  0  0  0
 10 11  3  0  0  0  0
M  END
> <Index>
21405

> <PropertyFieldDistance>
nan

$$$$
15731428
BBcorina  12272117083D 1   1.00000     0.00000 
CORINA 4.3.0 0026  30.10.2019
 11 11  0  0  0  0  0  0  0  0999 V2000
  -31.4207    4.7356  -44.0447 C   0  0  0  0  0  0  0  0  0  0  0  0
  -32.5733    4.8819  -42.6398 P   0  0  0  0  0  0  0  0  0  0  0  0
  -32.4757    3.6716  -41.7937 O   0  0  0  0  0  0  0  0  0  0  0  0
  -32.1422    6.3513  -41.6507 C   0  0  0  0  0  0  0  0  0  0  0  0
  -34.2769    5.0496  -43.2665 C   0  0  0  0  0  0  0  0  0  0  0  0
  -35.2461    5.1676  -42.0870 C   0  0  0  0  0  0  0  0  0  0  0  0
  -36.6793    5.2476  -42.6202 C   0  0  0  0  0  0  0  0  0  0  0  0
  -36.9723    4.0086  -43.4695 C   0  0  0  0  0  0  0  0  0  0  0  0
  -36.0191    3.9414  -44.5845 N   0  0  0  0  0  0  0  0  0  0  0  0
  -34.6396    3.8164  -44.0971 C   0  0  0  0  0  0  0  0  0  0  0  0
  -36.4110    2.6621  -45.6494 X   0  0  0  0  0  0  0  0  0  0  0  0
  1  2  1  0  0  0  0
  2  3  2  0  0  0  0
  2  4  1  0  0  0  0
  2  5  1  0  0  0  0
  5  6  1  0  0  0  0
  5 10  1  0  0  0  0
  6  7  1  0  0  0  0
  7  8  1  0  0  0  0
  8  9  1  0  0  0  0
  9 10  1  0  0  0  0
  9 11  1  0  0  0  0
M  END
> <Index>
21410

> <PropertyFieldDistance>
nan

$$$$
15730932
BBcorina  12272117083D 1   1.00000     0.00000 
CORINA 4.3.0 0026  30.10.2019
 13 13  0  0  0  0  0  0  0  0999 V2000
  -34.3224    8.9042  -39.8760 F   0  0  0  0  0  0  0  0  0  0  0  0
  -35.5739    8.2993  -39.7180 C   0  0  0  0  0  0  0  0  0  0  0  0
  -36.5220    9.2708  -39.3797 F   0  0  0  0  0  0  0  0  0  0  0  0
  -35.5039    7.3417  -38.7004 F   0  0  0  0  0  0  0  0  0  0  0  0
  -35.9822    7.6224  -41.0280 C   0  0  0  0  0  0  0  0  0  0  0  0
  -34.9453    6.5600  -41.3980 C   0  0  0  0  0  0  0  0  0  0  0  0
  -35.3535    5.8833  -42.7079 C   0  0  0  0  0  0  0  0  0  0  0  0
  -36.6585    5.1099  -42.5008 C   0  0  0  0  0  0  0  0  0  0  0  0
  -37.0291    4.3869  -43.7977 C   0  0  0  0  0  0  0  0  0  0  0  0
  -35.9480    3.4664  -44.1723 N   0  0  0  0  0  0  0  0  0  0  0  0
  -34.6958    4.1916  -44.4226 C   0  0  0  0  0  0  0  0  0  0  0  0
  -34.2559    4.9088  -43.1442 C   0  0  0  0  0  0  0  0  0  0  0  0
  -36.3899    2.5211  -45.5270 X   0  0  0  0  0  0  0  0  0  0  0  0
  1  2  1  0  0  0  0
  2  3  1  0  0  0  0
  2  4  1  0  0  0  0
  2  5  1  0  0  0  0
  5  6  1  0  0  0  0
  6  7  1  0  0  0  0
  7  8  1  0  0  0  0
  7 12  1  0  0  0  0
  8  9  1  0  0  0  0
  9 10  1  0  0  0  0
 10 11  1  0  0  0  0
 10 13  1  0  0  0  0
 11 12  1  0  0  0  0
M  END
> <Index>
21415

> <PropertyFieldDistance>
nan

$$$$
14247082
BBcorina  12272117083D 1   1.00000     0.00000 
CORINA 4.3.0 0026  30.10.2019
 11 12  0  0  0  0  0  0  0  0999 V2000
  -36.3311    2.3024  -44.8644 C   0  0  0  0  0  0  0  0  0  0  0  0
  -35.9439    3.3521  -43.9123 N   0  0  0  0  0  0  0  0  0  0  0  0
  -37.0474    4.2951  -43.6914 C   0  0  0  0  0  0  0  0  0  0  0  0
  -36.6786    5.2542  -42.5546 C   0  0  0  0  0  0  0  0  0  0  0  0
  -35.3717    5.9621  -42.9053 C   0  0  0  0  0  0  0  0  0  0  0  0
  -35.5405    7.0986  -43.9222 C   0  0  0  0  0  0  0  0  0  0  0  0
  -34.5986    7.8609  -43.0715 N   0  0  0  0  0  0  0  0  0  0  0  0
  -34.9643    7.0413  -41.8940 C   0  0  0  0  0  0  0  0  0  0  0  0
  -34.2462    4.9903  -43.2530 C   0  0  0  0  0  0  0  0  0  0  0  0
  -34.7274    4.0436  -44.3574 C   0  0  0  0  0  0  0  0  0  0  0  0
  -35.1191    9.4782  -42.8781 X   0  0  0  0  0  0  0  0  0  0  0  0
  1  2  1  0  0  0  0
  2  3  1  0  0  0  0
  2 10  1  0  0  0  0
  3  4  1  0  0  0  0
  4  5  1  0  0  0  0
  5  6  1  0  0  0  0
  5  8  1  0  0  0  0
  5  9  1  0  0  0  0
  6  7  1  0  0  0  0
  7  8  1  0  0  0  0
  7 11  1  0  0  0  0
  9 10  1  0  0  0  0
M  END
> <Index>
21419

> <PropertyFieldDistance>
nan

$$$$
13827832
BBcorina  12272117083D 1   1.00000     0.00000 
CORINA 4.3.0 0026  30.10.2019
 12 12  0  0  0  0  0  0  0  0999 V2000
  -40.7954    4.0117  -43.0445 C   0  0  0  0  0  0  0  0  0  0  0  0
  -39.3494    4.0355  -42.5448 C   0  0  0  0  0  0  0  0  0  0  0  0
  -38.3976    3.8540  -43.7288 C   0  0  0  0  0  0  0  0  0  0  0  0
  -36.9514    3.9683  -43.2428 C   0  0  0  0  0  0  0  0  0  0  0  0
  -36.6923    5.3914  -42.7433 C   0  0  0  0  0  0  0  0  0  0  0  0
  -35.2385    5.5066  -42.2766 C   0  0  0  0  0  0  0  0  0  0  0  0
  -34.3081    5.1368  -43.4352 C   0  0  0  0  0  0  0  0  0  0  0  0
  -34.6362    3.7210  -43.9146 C   0  0  0  0  0  0  0  0  0  0  0  0
  -36.0372    3.6631  -44.3508 N   0  0  0  0  0  0  0  0  0  0  0  0
  -36.3495    2.3570  -44.9464 C   0  0  0  0  0  0  0  0  0  0  0  0
  -39.1461    2.9451  -41.5815 N   0  0  0  0  0  0  0  0  0  0  0  0
  -39.4237    1.4235  -42.3108 X   0  0  0  0  0  0  0  0  0  0  0  0
  1  2  1  0  0  0  0
  2  3  1  0  0  0  0
  2 11  1  0  0  0  0
  3  4  1  0  0  0  0
  4  5  1  0  0  0  0
  4  9  1  0  0  0  0
  5  6  1  0  0  0  0
  6  7  1  0  0  0  0
  7  8  1  0  0  0  0
  8  9  1  0  0  0  0
  9 10  1  0  0  0  0
 11 12  1  0  0  0  0
M  END
> <Index>
21422

> <PropertyFieldDistance>
nan

$$$$
10300554
BBcorina  12272117083D 1   1.00000     0.00000 
CORINA 4.3.0 0026  30.10.2019
 12 13  0  0  0  0  0  0  0  0999 V2000
  -36.3343    2.3060  -44.8749 C   0  0  0  0  0  0  0  0  0  0  0  0
  -35.9450    3.3445  -43.9116 N   0  0  0  0  0  0  0  0  0  0  0  0
  -37.0448    4.2911  -43.6852 C   0  0  0  0  0  0  0  0  0  0  0  0
  -36.6605    5.2605  -42.5637 C   0  0  0  0  0  0  0  0  0  0  0  0
  -35.3795    5.9946  -42.9484 C   0  0  0  0  0  0  0  0  0  0  0  0
  -34.9524    6.9467  -41.8187 C   0  0  0  0  0  0  0  0  0  0  0  0
  -34.9778    8.3543  -42.4551 C   0  0  0  0  0  0  0  0  0  0  0  0
  -35.9220    8.2330  -43.5961 N   0  0  0  0  0  0  0  0  0  0  0  0
  -35.6315    6.8937  -44.1721 C   0  0  0  0  0  0  0  0  0  0  0  0
  -34.2639    4.9983  -43.2494 C   0  0  0  0  0  0  0  0  0  0  0  0
  -34.7261    4.0372  -44.3484 C   0  0  0  0  0  0  0  0  0  0  0  0
  -35.6526    9.4673  -44.7485 X   0  0  0  0  0  0  0  0  0  0  0  0
  1  2  1  0  0  0  0
  2  3  1  0  0  0  0
  2 11  1  0  0  0  0
  3  4  1  0  0  0  0
  4  5  1  0  0  0  0
  5  6  1  0  0  0  0
  5  9  1  0  0  0  0
  5 10  1  0  0  0  0
  6  7  1  0  0  0  0
  7  8  1  0  0  0  0
  8  9  1  0  0  0  0
  8 12  1  0  0  0  0
 10 11  1  0  0  0  0
M  END
> <Index>
21424

> <PropertyFieldDistance>
nan

$$$$
15494426
BBcorina  12272117083D 1   1.00000     0.00000 
CORINA 4.3.0 0026  30.10.2019
 13 14  0  0  0  0  0  0  0  0999 V2000
  -36.0397    4.0639  -44.6516 N   0  0  0  0  0  0  0  0  0  0  0  0
  -36.9814    4.0786  -43.5236 C   0  0  0  0  0  0  0  0  0  0  0  0
  -36.5959    5.1993  -42.5552 C   0  0  0  0  0  0  0  0  0  0  0  0
  -35.2197    4.9858  -42.0858 N   0  0  0  0  0  0  0  0  0  0  0  0
  -34.2780    4.9712  -43.2139 C   0  0  0  0  0  0  0  0  0  0  0  0
  -34.6635    3.8504  -44.1824 C   0  0  0  0  0  0  0  0  0  0  0  0
  -34.8381    6.0007  -41.0947 C   0  0  0  0  0  0  0  0  0  0  0  0
  -33.4038    5.7400  -40.5831 C   0  0  0  0  0  0  0  0  0  0  0  0
  -33.5722    5.9018  -39.0529 C   0  0  0  0  0  0  0  0  0  0  0  0
  -34.9689    5.5661  -38.8019 O   0  0  0  0  0  0  0  0  0  0  0  0
  -35.7154    5.8932  -39.8664 C   0  0  0  0  0  0  0  0  0  0  0  0
  -36.9098    6.0751  -39.8478 O   0  0  0  0  0  0  0  0  0  0  0  0
  -36.4839    2.8827  -45.8055 X   0  0  0  0  0  0  0  0  0  0  0  0
  1  2  1  0  0  0  0
  1  6  1  0  0  0  0
  1 13  1  0  0  0  0
  2  3  1  0  0  0  0
  3  4  1  0  0  0  0
  4  5  1  0  0  0  0
  4  7  1  0  0  0  0
  5  6  1  0  0  0  0
  7  8  1  0  0  0  0
  7 11  1  0  0  0  0
  8  9  1  0  0  0  0
  9 10  1  0  0  0  0
 10 11  1  0  0  0  0
 11 12  2  0  0  0  0
M  END
> <Index>
21426

> <PropertyFieldDistance>
nan

$$$$
17067416
BBcorina  12272117083D 1   1.00000     0.00000 
CORINA 4.3.0 0026  30.10.2019
 13 13  0  0  0  0  0  0  0  0999 V2000
  -36.4253    9.5724  -38.8743 C   0  0  0  0  0  0  0  0  0  0  0  0
  -35.5025    8.4744  -39.4066 C   0  0  0  0  0  0  0  0  0  0  0  0
  -36.1753    7.8185  -40.9584 S   0  0  0  0  0  0  0  0  0  0  0  0
  -36.1390    8.8471  -41.9381 O   0  0  0  0  0  0  0  0  0  0  0  0
  -37.4083    7.1699  -40.6788 O   0  0  0  0  0  0  0  0  0  0  0  0
  -34.9460    6.5589  -41.3971 C   0  0  0  0  0  0  0  0  0  0  0  0
  -35.3535    5.8833  -42.7079 C   0  0  0  0  0  0  0  0  0  0  0  0
  -36.6585    5.1099  -42.5008 C   0  0  0  0  0  0  0  0  0  0  0  0
  -37.0291    4.3869  -43.7977 C   0  0  0  0  0  0  0  0  0  0  0  0
  -35.9480    3.4664  -44.1723 N   0  0  0  0  0  0  0  0  0  0  0  0
  -34.6958    4.1916  -44.4226 C   0  0  0  0  0  0  0  0  0  0  0  0
  -34.2559    4.9088  -43.1442 C   0  0  0  0  0  0  0  0  0  0  0  0
  -36.3899    2.5211  -45.5270 X   0  0  0  0  0  0  0  0  0  0  0  0
  1  2  1  0  0  0  0
  2  3  1  0  0  0  0
  3  4  2  0  0  0  0
  3  5  2  0  0  0  0
  3  6  1  0  0  0  0
  6  7  1  0  0  0  0
  7  8  1  0  0  0  0
  7 12  1  0  0  0  0
  8  9  1  0  0  0  0
  9 10  1  0  0  0  0
 10 11  1  0  0  0  0
 10 13  1  0  0  0  0
 11 12  1  0  0  0  0
M  END
> <Index>
21431

> <PropertyFieldDistance>
nan

$$$$
16948810
BBcorina  12272117083D 1   1.00000     0.00000 
CORINA 4.3.0 0026  30.10.2019
 11 11  0  0  0  0  0  0  0  0999 V2000
  -36.4691    9.5900  -38.8950 C   0  0  0  0  0  0  0  0  0  0  0  0
  -35.5289    8.4959  -39.4047 C   0  0  0  0  0  0  0  0  0  0  0  0
  -36.1753    7.8185  -40.9584 S   0  0  0  0  0  0  0  0  0  0  0  0
  -34.9460    6.5589  -41.3971 C   0  0  0  0  0  0  0  0  0  0  0  0
  -35.3535    5.8833  -42.7079 C   0  0  0  0  0  0  0  0  0  0  0  0
  -36.6585    5.1099  -42.5008 C   0  0  0  0  0  0  0  0  0  0  0  0
  -37.0291    4.3869  -43.7977 C   0  0  0  0  0  0  0  0  0  0  0  0
  -35.9480    3.4664  -44.1723 N   0  0  0  0  0  0  0  0  0  0  0  0
  -34.6958    4.1916  -44.4226 C   0  0  0  0  0  0  0  0  0  0  0  0
  -34.2559    4.9088  -43.1442 C   0  0  0  0  0  0  0  0  0  0  0  0
  -36.3899    2.5211  -45.5270 X   0  0  0  0  0  0  0  0  0  0  0  0
  1  2  1  0  0  0  0
  2  3  1  0  0  0  0
  3  4  1  0  0  0  0
  4  5  1  0  0  0  0
  5  6  1  0  0  0  0
  5 10  1  0  0  0  0
  6  7  1  0  0  0  0
  7  8  1  0  0  0  0
  8  9  1  0  0  0  0
  8 11  1  0  0  0  0
  9 10  1  0  0  0  0
M  END
> <Index>
21433

> <PropertyFieldDistance>
nan

$$$$
9192340
BBcorina  12272117083D 1   1.00000     0.00000 
CORINA 4.3.0 0026  30.10.2019
 12 12  0  0  0  0  0  0  0  0999 V2000
  -35.9376    2.0118  -46.0906 C   0  0  0  0  0  0  0  0  0  0  0  0
  -36.3833    2.0882  -44.6290 C   0  0  0  0  0  0  0  0  0  0  0  0
  -35.6735    0.9996  -43.8217 C   0  0  0  0  0  0  0  0  0  0  0  0
  -36.0086    1.1479  -42.3991 N   0  0  0  0  0  0  0  0  0  0  0  0
  -36.0407    3.4035  -44.0821 N   0  0  0  0  0  0  0  0  0  0  0  0
  -37.1260    4.2418  -43.5883 C   0  0  0  0  0  0  0  0  0  0  0  0
  -36.5814    5.3206  -42.6484 C   0  0  0  0  0  0  0  0  0  0  0  0
  -35.4242    6.0405  -43.3516 C   0  0  0  0  0  0  0  0  0  0  0  0
  -34.2605    5.0571  -43.4983 C   0  0  0  0  0  0  0  0  0  0  0  0
  -34.7560    3.7609  -44.0723 C   0  0  0  0  0  0  0  0  0  0  0  0
  -33.9445    2.9984  -44.5530 O   0  0  0  0  0  0  0  0  0  0  0  0
  -35.2340   -0.0521  -41.4588 X   0  0  0  0  0  0  0  0  0  0  0  0
  1  2  1  0  0  0  0
  2  3  1  0  0  0  0
  2  5  1  0  0  0  0
  3  4  1  0  0  0  0
  4 12  1  0  0  0  0
  5  6  1  0  0  0  0
  5 10  1  0  0  0  0
  6  7  1  0  0  0  0
  7  8  1  0  0  0  0
  8  9  1  0  0  0  0
  9 10  1  0  0  0  0
 10 11  2  0  0  0  0
M  END
> <Index>
21438

> <PropertyFieldDistance>
nan

$$$$
15142564
BBcorina  12272117083D 1   1.00000     0.00000 
CORINA 4.3.0 0026  30.10.2019
 12 13  0  0  0  0  0  0  0  0999 V2000
  -35.0865    6.8787  -41.8290 N   0  0  0  0  0  0  0  0  0  0  0  0
  -35.4222    5.9601  -42.9251 C   0  0  0  0  0  0  0  0  0  0  0  0
  -36.6024    5.0759  -42.5094 C   0  0  0  0  0  0  0  0  0  0  0  0
  -37.1187    4.3082  -43.7315 C   0  0  0  0  0  0  0  0  0  0  0  0
  -35.9869    3.6284  -44.3714 N   0  0  0  0  0  0  0  0  0  0  0  0
  -34.6658    3.9833  -44.1879 C   0  0  0  0  0  0  0  0  0  0  0  0
  -34.2134    5.0676  -43.2375 C   0  0  0  0  0  0  0  0  0  0  0  0
  -33.9266    3.2317  -44.9289 N   0  0  0  0  0  0  0  0  0  0  0  0
  -34.7628    2.3385  -45.6159 N   0  0  0  0  0  0  0  0  0  0  0  0
  -36.0319    2.5995  -45.2333 C   0  0  0  0  0  0  0  0  0  0  0  0
  -37.0324    2.0107  -45.6024 O   0  0  0  0  0  0  0  0  0  0  0  0
  -34.5492    6.0194  -40.4518 X   0  0  0  0  0  0  0  0  0  0  0  0
  1  2  1  0  0  0  0
  1 12  1  0  0  0  0
  2  3  1  0  0  0  0
  2  7  1  0  0  0  0
  3  4  1  0  0  0  0
  4  5  1  0  0  0  0
  5  6  1  0  0  0  0
  5 10  1  0  0  0  0
  6  7  1  0  0  0  0
  6  8  2  0  0  0  0
  8  9  1  0  0  0  0
  9 10  1  0  0  0  0
 10 11  2  0  0  0  0
M  END
> <Index>
21439

> <PropertyFieldDistance>
nan

$$$$
14772382
BBcorina  12272117083D 1   1.00000     0.00000 
CORINA 4.3.0 0026  30.10.2019
 13 14  0  0  0  0  0  0  0  0999 V2000
  -36.0255    3.9367  -44.5534 N   0  0  0  0  0  0  0  0  0  0  0  0
  -36.9527    4.0315  -43.4179 C   0  0  0  0  0  0  0  0  0  0  0  0
  -36.6679    5.3185  -42.6363 C   0  0  0  0  0  0  0  0  0  0  0  0
  -35.2416    5.3416  -42.2780 N   0  0  0  0  0  0  0  0  0  0  0  0
  -34.2529    5.1159  -43.3433 C   0  0  0  0  0  0  0  0  0  0  0  0
  -34.6327    3.8369  -44.0971 C   0  0  0  0  0  0  0  0  0  0  0  0
  -34.8429    5.5686  -40.9812 C   0  0  0  0  0  0  0  0  0  0  0  0
  -33.5879    5.5769  -40.7313 N   0  0  0  0  0  0  0  0  0  0  0  0
  -32.9227    5.7614  -39.4597 C   0  0  0  0  0  0  0  0  0  0  0  0
  -33.8151    6.4310  -38.4210 C   0  0  0  0  0  0  0  0  0  0  0  0
  -35.1020    5.6094  -38.2639 C   0  0  0  0  0  0  0  0  0  0  0  0
  -36.0892    5.8369  -39.7694 S   0  0  0  0  0  0  0  0  0  0  0  0
  -36.4331    2.6230  -45.5694 X   0  0  0  0  0  0  0  0  0  0  0  0
  1  2  1  0  0  0  0
  1  6  1  0  0  0  0
  1 13  1  0  0  0  0
  2  3  1  0  0  0  0
  3  4  1  0  0  0  0
  4  5  1  0  0  0  0
  4  7  1  0  0  0  0
  5  6  1  0  0  0  0
  7  8  2  0  0  0  0
  7 12  1  0  0  0  0
  8  9  1  0  0  0  0
  9 10  1  0  0  0  0
 10 11  1  0  0  0  0
 11 12  1  0  0  0  0
M  END
> <Index>
21449

> <PropertyFieldDistance>
nan

$$$$
14947710
BBcorina  12272117083D 1   1.00000     0.00000 
CORINA 4.3.0 0026  30.10.2019
 11 11  0  0  0  0  0  0  0  0999 V2000
  -32.0273    3.0219  -41.9774 C   0  0  0  0  0  0  0  0  0  0  0  0
  -32.9592    3.9743  -40.7465 S   0  0  0  0  0  0  0  0  0  0  0  0
  -32.1432    4.9902  -40.1798 O   0  0  0  0  0  0  0  0  0  0  0  0
  -33.7281    3.1080  -39.9233 O   0  0  0  0  0  0  0  0  0  0  0  0
  -34.0867    4.8030  -41.6322 N   0  0  0  0  0  0  0  0  0  0  0  0
  -35.1316    4.0731  -42.3544 C   0  0  0  0  0  0  0  0  0  0  0  0
  -36.4196    4.9319  -42.4898 C   0  0  0  0  0  0  0  0  0  0  0  0
  -37.0796    4.3646  -43.7642 C   0  0  0  0  0  0  0  0  0  0  0  0
  -36.0217    3.7054  -44.5516 N   0  0  0  0  0  0  0  0  0  0  0  0
  -34.7367    3.8612  -43.8373 C   0  0  0  0  0  0  0  0  0  0  0  0
  -35.9306    4.3633  -46.1274 X   0  0  0  0  0  0  0  0  0  0  0  0
  1  2  1  0  0  0  0
  2  3  2  0  0  0  0
  2  4  2  0  0  0  0
  2  5  1  0  0  0  0
  5  6  1  0  0  0  0
  6  7  1  0  0  0  0
  6 10  1  0  0  0  0
  7  8  1  0  0  0  0
  8  9  1  0  0  0  0
  9 10  1  0  0  0  0
  9 11  1  0  0  0  0
M  END
> <Index>
21451

> <PropertyFieldDistance>
nan

$$$$
14726094
BBcorina  12272117083D 1   1.00000     0.00000 
CORINA 4.3.0 0026  30.10.2019
 11 11  0  0  0  0  0  0  0  0999 V2000
  -31.9103    4.7607  -43.7073 O   0  0  0  0  0  0  0  0  0  0  0  0
  -32.9625    5.6812  -43.4113 C   0  0  0  0  0  0  0  0  0  0  0  0
  -34.2559    4.9088  -43.1443 C   0  0  0  0  0  0  0  0  0  0  0  0
  -35.3534    5.8832  -42.7079 C   0  0  0  0  0  0  0  0  0  0  0  0
  -36.6587    5.1099  -42.5007 C   0  0  0  0  0  0  0  0  0  0  0  0
  -37.7759    6.0842  -42.1221 C   0  0  0  0  0  0  0  0  0  0  0  0
  -38.9649    5.3512  -41.8197 O   0  0  0  0  0  0  0  0  0  0  0  0
  -37.0291    4.3869  -43.7977 C   0  0  0  0  0  0  0  0  0  0  0  0
  -35.9479    3.4664  -44.1723 N   0  0  0  0  0  0  0  0  0  0  0  0
  -34.6958    4.1916  -44.4226 C   0  0  0  0  0  0  0  0  0  0  0  0
  -36.3899    2.5210  -45.5270 X   0  0  0  0  0  0  0  0  0  0  0  0
  1  2  1  0  0  0  0
  2  3  1  0  0  0  0
  3  4  1  0  0  0  0
  3 10  1  0  0  0  0
  4  5  1  0  0  0  0
  5  6  1  0  0  0  0
  5  8  1  0  0  0  0
  6  7  1  0  0  0  0
  8  9  1  0  0  0  0
  9 10  1  0  0  0  0
  9 11  1  0  0  0  0
M  END
> <Index>
21471

> <PropertyFieldDistance>
nan

$$$$
12865378
BBcorina  12272117083D 1   1.00000     0.00000 
CORINA 4.3.0 0026  30.10.2019
  9  9  0  0  0  0  0  0  0  0999 V2000
  -35.8853    3.5135  -44.0868 N   0  0  0  0  0  0  0  0  0  0  0  0
  -37.0617    4.3060  -43.7516 C   0  0  0  0  0  0  0  0  0  0  0  0
  -36.9044    5.1323  -42.4894 C   0  0  0  0  0  0  0  0  0  0  0  0
  -35.8571    6.2292  -42.6827 C   0  0  0  0  0  0  0  0  0  0  0  0
  -34.5306    5.6587  -42.3942 N   0  0  0  0  0  0  0  0  0  0  0  0
  -33.9948    4.7651  -43.2305 C   0  0  0  0  0  0  0  0  0  0  0  0
  -32.9064    4.2878  -42.9885 O   0  0  0  0  0  0  0  0  0  0  0  0
  -34.7412    4.3467  -44.4794 C   0  0  0  0  0  0  0  0  0  0  0  0
  -36.2476    2.3606  -45.2967 X   0  0  0  0  0  0  0  0  0  0  0  0
  1  2  1  0  0  0  0
  1  8  1  0  0  0  0
  1  9  1  0  0  0  0
  2  3  1  0  0  0  0
  3  4  1  0  0  0  0
  4  5  1  0  0  0  0
  5  6  1  0  0  0  0
  6  7  2  0  0  0  0
  6  8  1  0  0  0  0
M  END
> <Index>
21472

> <PropertyFieldDistance>
nan

$$$$
9141178
BBcorina  12272117083D 1   1.00000     0.00000 
CORINA 4.3.0 0026  30.10.2019
  9 10  0  0  0  0  0  0  0  0999 V2000
  -34.2062    6.6757  -41.9983 O   0  0  0  0  0  0  0  0  0  0  0  0
  -33.9054    5.2923  -41.8037 C   0  0  0  0  0  0  0  0  0  0  0  0
  -34.9803    4.4370  -42.4773 C   0  0  0  0  0  0  0  0  0  0  0  0
  -35.9654    3.6463  -41.6139 C   0  0  0  0  0  0  0  0  0  0  0  0
  -36.4718    4.8295  -42.4412 C   0  0  0  0  0  0  0  0  0  0  0  0
  -36.9946    4.5502  -43.8667 C   0  0  0  0  0  0  0  0  0  0  0  0
  -36.0637    3.5298  -44.4136 N   0  0  0  0  0  0  0  0  0  0  0  0
  -34.7276    3.9536  -43.9215 C   0  0  0  0  0  0  0  0  0  0  0  0
  -36.1097    3.5118  -46.1229 X   0  0  0  0  0  0  0  0  0  0  0  0
  1  2  1  0  0  0  0
  2  3  1  0  0  0  0
  3  4  1  0  0  0  0
  3  5  1  0  0  0  0
  3  8  1  0  0  0  0
  4  5  1  0  0  0  0
  5  6  1  0  0  0  0
  6  7  1  0  0  0  0
  7  8  1  0  0  0  0
  7  9  1  0  0  0  0
M  END
> <Index>
21480

> <PropertyFieldDistance>
nan

$$$$
7931718
BBcorina  12272117083D 1   1.00000     0.00000 
CORINA 4.3.0 0026  30.10.2019
 19 20  0  0  0  0  0  0  0  0999 V2000
  -33.4632    8.8050  -41.5333 C   0  0  0  0  0  0  0  0  0  0  0  0
  -33.7087    7.3753  -41.7651 N   0  0  0  0  0  0  0  0  0  0  0  0
  -35.0703    7.1498  -42.2682 C   0  0  0  0  0  0  0  0  0  0  0  0
  -35.2880    5.6527  -42.4971 C   0  0  0  0  0  0  0  0  0  0  0  0
  -36.7430    5.4050  -42.9015 C   0  0  0  0  0  0  0  0  0  0  0  0
  -36.9658    3.9020  -43.0964 C   0  0  0  0  0  0  0  0  0  0  0  0
  -35.9799    3.3960  -44.0611 N   0  0  0  0  0  0  0  0  0  0  0  0
  -34.5532    3.6611  -43.8137 C   0  0  0  0  0  0  0  0  0  0  0  0
  -34.3574    5.1668  -43.6107 C   0  0  0  0  0  0  0  0  0  0  0  0
  -36.3753    2.7067  -45.1496 C   0  0  0  0  0  0  0  0  0  0  0  0
  -35.5603    2.3761  -45.9891 O   0  0  0  0  0  0  0  0  0  0  0  0
  -37.6743    2.3838  -45.3076 N   0  0  0  0  0  0  0  0  0  0  0  0
  -38.0688    1.5734  -46.3782 C   0  0  0  0  0  0  0  0  0  0  0  0
  -37.2353    0.5564  -46.8249 C   0  0  0  0  0  0  0  0  0  0  0  0
  -37.6276   -0.2419  -47.8815 C   0  0  0  0  0  0  0  0  0  0  0  0
  -38.8488   -0.0294  -48.4943 C   0  0  0  0  0  0  0  0  0  0  0  0
  -39.6811    0.9824  -48.0518 C   0  0  0  0  0  0  0  0  0  0  0  0
  -39.2968    1.7809  -46.9923 C   0  0  0  0  0  0  0  0  0  0  0  0
  -33.4215    6.4661  -40.3456 X   0  0  0  0  0  0  0  0  0  0  0  0
  1  2  1  0  0  0  0
  2  3  1  0  0  0  0
  2 19  1  0  0  0  0
  3  4  1  0  0  0  0
  4  5  1  0  0  0  0
  4  9  1  0  0  0  0
  5  6  1  0  0  0  0
  6  7  1  0  0  0  0
  7  8  1  0  0  0  0
  7 10  1  0  0  0  0
  8  9  1  0  0  0  0
 10 11  2  0  0  0  0
 10 12  1  0  0  0  0
 12 13  1  0  0  0  0
 13 14  2  0  0  0  0
 13 18  1  0  0  0  0
 14 15  1  0  0  0  0
 15 16  2  0  0  0  0
 16 17  1  0  0  0  0
 17 18  2  0  0  0  0
M  END
> <Index>
21482

> <PropertyFieldDistance>
nan

$$$$
7933370
BBcorina  12272117083D 1   1.00000     0.00000 
CORINA 4.3.0 0026  30.10.2019
 13 13  0  0  0  0  0  0  0  0999 V2000
  -38.4501    3.9410  -43.6329 C   0  0  0  0  0  0  0  0  0  0  0  0
  -36.9893    4.0110  -43.1835 C   0  0  0  0  0  0  0  0  0  0  0  0
  -36.6400    5.4524  -42.8053 C   0  0  0  0  0  0  0  0  0  0  0  0
  -35.2260    5.5237  -42.4114 N   0  0  0  0  0  0  0  0  0  0  0  0
  -34.3537    5.0828  -43.5087 C   0  0  0  0  0  0  0  0  0  0  0  0
  -34.7030    3.6415  -43.8868 C   0  0  0  0  0  0  0  0  0  0  0  0
  -36.1170    3.5701  -44.2808 N   0  0  0  0  0  0  0  0  0  0  0  0
  -36.4723    2.2154  -44.7240 C   0  0  0  0  0  0  0  0  0  0  0  0
  -35.8545    1.9498  -46.0982 C   0  0  0  0  0  0  0  0  0  0  0  0
  -34.4600    1.9324  -45.9871 F   0  0  0  0  0  0  0  0  0  0  0  0
  -36.2390    2.9607  -46.9856 F   0  0  0  0  0  0  0  0  0  0  0  0
  -36.2996    0.7135  -46.5786 F   0  0  0  0  0  0  0  0  0  0  0  0
  -34.8124    7.1007  -41.8956 X   0  0  0  0  0  0  0  0  0  0  0  0
  1  2  1  0  0  0  0
  2  3  1  0  0  0  0
  2  7  1  0  0  0  0
  3  4  1  0  0  0  0
  4  5  1  0  0  0  0
  4 13  1  0  0  0  0
  5  6  1  0  0  0  0
  6  7  1  0  0  0  0
  7  8  1  0  0  0  0
  8  9  1  0  0  0  0
  9 10  1  0  0  0  0
  9 11  1  0  0  0  0
  9 12  1  0  0  0  0
M  END
> <Index>
21483

> <PropertyFieldDistance>
nan

$$$$
14948108
BBcorina  12272117083D 1   1.00000     0.00000 
CORINA 4.3.0 0026  30.10.2019
 13 13  0  0  0  0  0  0  0  0999 V2000
  -36.0194    3.9412  -44.5845 N   0  0  0  0  0  0  0  0  0  0  0  0
  -36.9723    4.0084  -43.4692 C   0  0  0  0  0  0  0  0  0  0  0  0
  -36.6796    5.2477  -42.6204 C   0  0  0  0  0  0  0  0  0  0  0  0
  -35.2464    5.1684  -42.0874 C   0  0  0  0  0  0  0  0  0  0  0  0
  -34.9272    6.4333  -41.2883 C   0  0  0  0  0  0  0  0  0  0  0  0
  -33.4939    6.3542  -40.7590 C   0  0  0  0  0  0  0  0  0  0  0  0
  -33.1796    7.6002  -39.9718 C   0  0  0  0  0  0  0  0  0  0  0  0
  -32.7581    7.5048  -38.7350 C   0  0  0  0  0  0  0  0  0  0  0  0
  -34.2763    5.0495  -43.2662 C   0  0  0  0  0  0  0  0  0  0  0  0
  -34.6397    3.8168  -44.0972 C   0  0  0  0  0  0  0  0  0  0  0  0
  -35.1098    3.9890  -41.2172 C   0  0  0  0  0  0  0  0  0  0  0  0
  -35.0043    3.0790  -40.5455 N   0  0  0  0  0  0  0  0  0  0  0  0
  -36.4111    2.6615  -45.6490 X   0  0  0  0  0  0  0  0  0  0  0  0
  1  2  1  0  0  0  0
  1 10  1  0  0  0  0
  1 13  1  0  0  0  0
  2  3  1  0  0  0  0
  3  4  1  0  0  0  0
  4  5  1  0  0  0  0
  4  9  1  0  0  0  0
  4 11  1  0  0  0  0
  5  6  1  0  0  0  0
  6  7  1  0  0  0  0
  7  8  2  0  0  0  0
  9 10  1  0  0  0  0
 11 12  3  0  0  0  0
M  END
> <Index>
21487

> <PropertyFieldDistance>
nan

$$$$
14577578
BBcorina  12272117083D 1   1.00000     0.00000 
CORINA 4.3.0 0026  30.10.2019
 14 15  0  0  0  0  0  0  0  0999 V2000
  -32.6270    0.2536  -47.8316 C   0  0  0  0  0  0  0  0  0  0  0  0
  -33.7624    0.6866  -46.9404 C   0  0  0  0  0  0  0  0  0  0  0  0
  -34.2939   -0.0216  -45.9965 N   0  0  0  0  0  0  0  0  0  0  0  0
  -35.2417    0.5149  -45.3550 N   0  0  0  0  0  0  0  0  0  0  0  0
  -35.5753    1.7129  -45.7132 C   0  0  0  0  0  0  0  0  0  0  0  0
  -36.6706    2.5427  -45.0944 C   0  0  0  0  0  0  0  0  0  0  0  0
  -36.1183    3.3364  -43.9885 N   0  0  0  0  0  0  0  0  0  0  0  0
  -37.0927    4.3292  -43.5148 C   0  0  0  0  0  0  0  0  0  0  0  0
  -36.5103    5.0791  -42.3144 C   0  0  0  0  0  0  0  0  0  0  0  0
  -35.2517    5.7273  -42.7086 N   0  0  0  0  0  0  0  0  0  0  0  0
  -34.2773    4.7344  -43.1823 C   0  0  0  0  0  0  0  0  0  0  0  0
  -34.8596    3.9845  -44.3827 C   0  0  0  0  0  0  0  0  0  0  0  0
  -34.5696    2.1949  -47.0124 S   0  0  0  0  0  0  0  0  0  0  0  0
  -34.6088    6.6511  -41.4213 X   0  0  0  0  0  0  0  0  0  0  0  0
  1  2  1  0  0  0  0
  2  3  2  0  0  0  0
  2 13  1  0  0  0  0
  3  4  1  0  0  0  0
  4  5  2  0  0  0  0
  5  6  1  0  0  0  0
  5 13  1  0  0  0  0
  6  7  1  0  0  0  0
  7  8  1  0  0  0  0
  7 12  1  0  0  0  0
  8  9  1  0  0  0  0
  9 10  1  0  0  0  0
 10 11  1  0  0  0  0
 10 14  1  0  0  0  0
 11 12  1  0  0  0  0
M  END
> <Index>
21501

> <PropertyFieldDistance>
nan

$$$$
14928204
BBcorina  12272117083D 1   1.00000     0.00000 
CORINA 4.3.0 0026  30.10.2019
 14 15  0  0  0  0  0  0  0  0999 V2000
  -36.3154    2.4460  -45.0257 C   0  0  0  0  0  0  0  0  0  0  0  0
  -35.9605    3.3014  -43.8855 N   0  0  0  0  0  0  0  0  0  0  0  0
  -37.0164    4.2825  -43.6160 C   0  0  0  0  0  0  0  0  0  0  0  0
  -36.5814    5.2218  -42.5210 C   0  0  0  0  0  0  0  0  0  0  0  0
  -37.3912    5.6512  -41.7266 O   0  0  0  0  0  0  0  0  0  0  0  0
  -35.2823    5.5823  -42.4313 N   0  0  0  0  0  0  0  0  0  0  0  0
  -34.3718    5.0527  -43.3579 C   0  0  0  0  0  0  0  0  0  0  0  0
  -33.1404    5.6548  -43.5521 C   0  0  0  0  0  0  0  0  0  0  0  0
  -32.2494    5.1235  -44.4758 C   0  0  0  0  0  0  0  0  0  0  0  0
  -31.0037    5.7299  -44.6757 N   0  0  0  0  0  0  0  0  0  0  0  0
  -32.5924    3.9877  -45.1969 C   0  0  0  0  0  0  0  0  0  0  0  0
  -33.8235    3.3882  -45.0065 C   0  0  0  0  0  0  0  0  0  0  0  0
  -34.7171    3.9139  -44.0856 C   0  0  0  0  0  0  0  0  0  0  0  0
  -30.5788    7.1250  -43.7829 X   0  0  0  0  0  0  0  0  0  0  0  0
  1  2  1  0  0  0  0
  2  3  1  0  0  0  0
  2 13  1  0  0  0  0
  3  4  1  0  0  0  0
  4  5  2  0  0  0  0
  4  6  1  0  0  0  0
  6  7  1  0  0  0  0
  7  8  2  0  0  0  0
  7 13  1  0  0  0  0
  8  9  1  0  0  0  0
  9 10  1  0  0  0  0
  9 11  2  0  0  0  0
 10 14  1  0  0  0  0
 11 12  1  0  0  0  0
 12 13  2  0  0  0  0
M  END
> <Index>
21522

> <PropertyFieldDistance>
nan

$$$$
2040730
BBcorina  12272117083D 1   1.00000     0.00000 
CORINA 4.3.0 0026  30.10.2019
 13 13  0  0  0  0  0  0  0  0999 V2000
  -35.8297    0.7677  -44.0554 F   0  0  0  0  0  0  0  0  0  0  0  0
  -35.7891    1.3750  -45.3150 C   0  0  0  0  0  0  0  0  0  0  0  0
  -36.3813    0.5300  -46.2595 F   0  0  0  0  0  0  0  0  0  0  0  0
  -34.4584    1.6156  -45.6739 F   0  0  0  0  0  0  0  0  0  0  0  0
  -36.5519    2.7004  -45.2670 C   0  0  0  0  0  0  0  0  0  0  0  0
  -36.0237    3.5303  -44.1760 N   0  0  0  0  0  0  0  0  0  0  0  0
  -37.0418    4.4923  -43.7011 C   0  0  0  0  0  0  0  0  0  0  0  0
  -36.7422    4.8349  -42.2634 C   0  0  0  0  0  0  0  0  0  0  0  0
  -35.8570    6.0851  -42.1393 C   0  0  0  0  0  0  0  0  0  0  0  0
  -34.7710    6.1116  -43.1454 N   0  0  0  0  0  0  0  0  0  0  0  0
  -34.1307    4.8315  -43.3486 C   0  0  0  0  0  0  0  0  0  0  0  0
  -34.8061    4.1194  -44.5380 C   0  0  0  0  0  0  0  0  0  0  0  0
  -33.6200    7.3203  -42.7731 X   0  0  0  0  0  0  0  0  0  0  0  0
  1  2  1  0  0  0  0
  2  3  1  0  0  0  0
  2  4  1  0  0  0  0
  2  5  1  0  0  0  0
  5  6  1  0  0  0  0
  6  7  1  0  0  0  0
  6 12  1  0  0  0  0
  7  8  1  0  0  0  0
  8  9  1  0  0  0  0
  9 10  1  0  0  0  0
 10 11  1  0  0  0  0
 10 13  1  0  0  0  0
 11 12  1  0  0  0  0
M  END
> <Index>
21540

> <PropertyFieldDistance>
nan

$$$$
730396
BBcorina  12272117083D 1   1.00000     0.00000 
CORINA 4.3.0 0026  30.10.2019
 16 17  0  0  0  0  0  0  0  0999 V2000
  -35.6528    7.1761  -42.4789 N   0  0  0  0  0  0  0  0  0  0  0  0
  -35.6214    5.7131  -42.6075 C   0  0  0  0  0  0  0  0  0  0  0  0
  -36.9154    5.2314  -43.2674 C   0  0  0  0  0  0  0  0  0  0  0  0
  -36.8942    3.7030  -43.3684 C   0  0  0  0  0  0  0  0  0  0  0  0
  -35.6701    3.2923  -44.0696 N   0  0  0  0  0  0  0  0  0  0  0  0
  -34.3744    3.7704  -43.5679 C   0  0  0  0  0  0  0  0  0  0  0  0
  -34.4243    5.3025  -43.4680 C   0  0  0  0  0  0  0  0  0  0  0  0
  -35.7340    2.4880  -45.1491 C   0  0  0  0  0  0  0  0  0  0  0  0
  -34.7139    2.0795  -45.6623 O   0  0  0  0  0  0  0  0  0  0  0  0
  -37.0731    2.0961  -45.7185 C   0  0  0  0  0  0  0  0  0  0  0  0
  -36.9132    1.7368  -47.1971 C   0  0  0  0  0  0  0  0  0  0  0  0
  -38.2728    1.3390  -47.7752 C   0  0  0  0  0  0  0  0  0  0  0  0
  -38.8172    0.1295  -47.0124 C   0  0  0  0  0  0  0  0  0  0  0  0
  -38.9771    0.4888  -45.5339 C   0  0  0  0  0  0  0  0  0  0  0  0
  -37.6176    0.8867  -44.9558 C   0  0  0  0  0  0  0  0  0  0  0  0
  -35.9077    7.9195  -43.9976 X   0  0  0  0  0  0  0  0  0  0  0  0
  1  2  1  0  0  0  0
  1 16  1  0  0  0  0
  2  3  1  0  0  0  0
  2  7  1  0  0  0  0
  3  4  1  0  0  0  0
  4  5  1  0  0  0  0
  5  6  1  0  0  0  0
  5  8  1  0  0  0  0
  6  7  1  0  0  0  0
  8  9  2  0  0  0  0
  8 10  1  0  0  0  0
 10 11  1  0  0  0  0
 10 15  1  0  0  0  0
 11 12  1  0  0  0  0
 12 13  1  0  0  0  0
 13 14  1  0  0  0  0
 14 15  1  0  0  0  0
M  END
> <Index>
21557

> <PropertyFieldDistance>
nan

$$$$
4836806
BBcorina  12272117083D 1   1.00000     0.00000 
CORINA 4.3.0 0026  30.10.2019
 14 15  0  0  0  0  0  0  0  0999 V2000
  -35.0946    7.1214  -42.4153 N   0  0  0  0  0  0  0  0  0  0  0  0
  -35.4452    6.0284  -43.3321 C   0  0  0  0  0  0  0  0  0  0  0  0
  -36.7127    5.3289  -42.8333 C   0  0  0  0  0  0  0  0  0  0  0  0
  -37.0385    4.1538  -43.7581 C   0  0  0  0  0  0  0  0  0  0  0  0
  -35.9113    3.2126  -43.7711 N   0  0  0  0  0  0  0  0  0  0  0  0
  -36.2429    2.0047  -44.5386 C   0  0  0  0  0  0  0  0  0  0  0  0
  -36.1872    2.3200  -46.0347 C   0  0  0  0  0  0  0  0  0  0  0  0
  -36.4205    1.0334  -46.8504 C   0  0  0  0  0  0  0  0  0  0  0  0
  -37.6646    1.3524  -47.7146 C   0  0  0  0  0  0  0  0  0  0  0  0
  -37.6718    2.9023  -47.7139 C   0  0  0  0  0  0  0  0  0  0  0  0
  -37.2336    3.2434  -46.3790 O   0  0  0  0  0  0  0  0  0  0  0  0
  -34.6943    3.8489  -44.2909 C   0  0  0  0  0  0  0  0  0  0  0  0
  -34.2985    5.0149  -43.3822 C   0  0  0  0  0  0  0  0  0  0  0  0
  -34.8082    6.5292  -40.8369 X   0  0  0  0  0  0  0  0  0  0  0  0
  1  2  1  0  0  0  0
  1 14  1  0  0  0  0
  2  3  1  0  0  0  0
  2 13  1  0  0  0  0
  3  4  1  0  0  0  0
  4  5  1  0  0  0  0
  5  6  1  0  0  0  0
  5 12  1  0  0  0  0
  6  7  1  0  0  0  0
  7  8  1  0  0  0  0
  7 11  1  0  0  0  0
  8  9  1  0  0  0  0
  9 10  1  0  0  0  0
 10 11  1  0  0  0  0
 12 13  1  0  0  0  0
M  END
> <Index>
21559

> <PropertyFieldDistance>
nan

$$$$
664208
BBcorina  12272117083D 1   1.00000     0.00000 
CORINA 4.3.0 0026  30.10.2019
 16 17  0  0  0  0  0  0  0  0999 V2000
  -34.8246    6.9572  -42.1337 N   0  0  0  0  0  0  0  0  0  0  0  0
  -35.1631    5.5578  -42.4253 C   0  0  0  0  0  0  0  0  0  0  0  0
  -36.6430    5.4577  -42.8053 C   0  0  0  0  0  0  0  0  0  0  0  0
  -36.9749    4.0081  -43.1668 C   0  0  0  0  0  0  0  0  0  0  0  0
  -36.1324    3.5770  -44.2896 N   0  0  0  0  0  0  0  0  0  0  0  0
  -36.5189    2.2379  -44.7540 C   0  0  0  0  0  0  0  0  0  0  0  0
  -35.7986    1.9261  -46.0674 C   0  0  0  0  0  0  0  0  0  0  0  0
  -36.1951    0.5524  -46.5437 C   0  0  0  0  0  0  0  0  0  0  0  0
  -37.2886    0.3981  -47.3751 C   0  0  0  0  0  0  0  0  0  0  0  0
  -37.6557   -0.8627  -47.8074 C   0  0  0  0  0  0  0  0  0  0  0  0
  -36.9229   -1.9678  -47.4169 C   0  0  0  0  0  0  0  0  0  0  0  0
  -35.8293   -1.8134  -46.5856 C   0  0  0  0  0  0  0  0  0  0  0  0
  -35.4654   -0.5533  -46.1490 C   0  0  0  0  0  0  0  0  0  0  0  0
  -34.7087    3.6196  -43.9322 C   0  0  0  0  0  0  0  0  0  0  0  0
  -34.3091    5.0575  -43.5937 C   0  0  0  0  0  0  0  0  0  0  0  0
  -35.2110    7.9694  -43.4566 X   0  0  0  0  0  0  0  0  0  0  0  0
  1  2  1  0  0  0  0
  1 16  1  0  0  0  0
  2  3  1  0  0  0  0
  2 15  1  0  0  0  0
  3  4  1  0  0  0  0
  4  5  1  0  0  0  0
  5  6  1  0  0  0  0
  5 14  1  0  0  0  0
  6  7  1  0  0  0  0
  7  8  1  0  0  0  0
  8  9  2  0  0  0  0
  8 13  1  0  0  0  0
  9 10  1  0  0  0  0
 10 11  2  0  0  0  0
 11 12  1  0  0  0  0
 12 13  2  0  0  0  0
 14 15  1  0  0  0  0
M  END
> <Index>
21560

> <PropertyFieldDistance>
nan

$$$$
1001152
BBcorina  12272117083D 1   1.00000     0.00000 
CORINA 4.3.0 0026  30.10.2019
 16 17  0  0  0  0  0  0  0  0999 V2000
  -32.5694   -0.6572  -47.2716 F   0  0  0  0  0  0  0  0  0  0  0  0
  -33.5548    0.0977  -46.7384 C   0  0  0  0  0  0  0  0  0  0  0  0
  -34.2530   -0.3554  -45.6320 C   0  0  0  0  0  0  0  0  0  0  0  0
  -35.2606    0.4179  -45.0872 C   0  0  0  0  0  0  0  0  0  0  0  0
  -35.5713    1.6434  -45.6464 C   0  0  0  0  0  0  0  0  0  0  0  0
  -36.6704    2.4855  -45.0517 C   0  0  0  0  0  0  0  0  0  0  0  0
  -36.1068    3.3727  -44.0255 N   0  0  0  0  0  0  0  0  0  0  0  0
  -37.0941    4.3694  -43.5915 C   0  0  0  0  0  0  0  0  0  0  0  0
  -36.5244    5.1793  -42.4247 C   0  0  0  0  0  0  0  0  0  0  0  0
  -35.2346    5.8725  -42.8725 C   0  0  0  0  0  0  0  0  0  0  0  0
  -34.2413    4.8164  -43.3649 C   0  0  0  0  0  0  0  0  0  0  0  0
  -34.8772    4.0170  -44.5044 C   0  0  0  0  0  0  0  0  0  0  0  0
  -34.6519    6.6043  -41.7399 N   0  0  0  0  0  0  0  0  0  0  0  0
  -34.8782    2.0945  -46.7544 C   0  0  0  0  0  0  0  0  0  0  0  0
  -33.8668    1.3253  -47.2977 C   0  0  0  0  0  0  0  0  0  0  0  0
  -34.1918    5.5326  -40.4893 X   0  0  0  0  0  0  0  0  0  0  0  0
  1  2  1  0  0  0  0
  2  3  2  0  0  0  0
  2 15  1  0  0  0  0
  3  4  1  0  0  0  0
  4  5  2  0  0  0  0
  5  6  1  0  0  0  0
  5 14  1  0  0  0  0
  6  7  1  0  0  0  0
  7  8  1  0  0  0  0
  7 12  1  0  0  0  0
  8  9  1  0  0  0  0
  9 10  1  0  0  0  0
 10 11  1  0  0  0  0
 10 13  1  0  0  0  0
 11 12  1  0  0  0  0
 13 16  1  0  0  0  0
 14 15  2  0  0  0  0
M  END
> <Index>
21561

> <PropertyFieldDistance>
nan

$$$$
788812
BBcorina  12272117083D 1   1.00000     0.00000 
CORINA 4.3.0 0026  30.10.2019
 16 17  0  0  0  0  0  0  0  0999 V2000
  -32.5705    0.3568  -47.1985 C   0  0  0  0  0  0  0  0  0  0  0  0
  -33.9169    1.0335  -47.2200 C   0  0  0  0  0  0  0  0  0  0  0  0
  -34.5022    1.3694  -48.4263 C   0  0  0  0  0  0  0  0  0  0  0  0
  -35.7376    1.9899  -48.4461 C   0  0  0  0  0  0  0  0  0  0  0  0
  -36.3870    2.2747  -47.2598 C   0  0  0  0  0  0  0  0  0  0  0  0
  -35.8041    1.9335  -46.0534 C   0  0  0  0  0  0  0  0  0  0  0  0
  -36.5153    2.2379  -44.7601 C   0  0  0  0  0  0  0  0  0  0  0  0
  -36.1305    3.5765  -44.2930 N   0  0  0  0  0  0  0  0  0  0  0  0
  -36.9747    4.0050  -43.1705 C   0  0  0  0  0  0  0  0  0  0  0  0
  -36.6444    5.4542  -42.8062 C   0  0  0  0  0  0  0  0  0  0  0  0
  -35.1650    5.5547  -42.4240 C   0  0  0  0  0  0  0  0  0  0  0  0
  -34.3093    5.0572  -43.5922 C   0  0  0  0  0  0  0  0  0  0  0  0
  -34.7073    3.6195  -43.9337 C   0  0  0  0  0  0  0  0  0  0  0  0
  -34.8281    6.9540  -42.1298 N   0  0  0  0  0  0  0  0  0  0  0  0
  -34.5667    1.3181  -46.0333 C   0  0  0  0  0  0  0  0  0  0  0  0
  -35.2136    7.9682  -43.4515 X   0  0  0  0  0  0  0  0  0  0  0  0
  1  2  1  0  0  0  0
  2  3  2  0  0  0  0
  2 15  1  0  0  0  0
  3  4  1  0  0  0  0
  4  5  2  0  0  0  0
  5  6  1  0  0  0  0
  6  7  1  0  0  0  0
  6 15  2  0  0  0  0
  7  8  1  0  0  0  0
  8  9  1  0  0  0  0
  8 13  1  0  0  0  0
  9 10  1  0  0  0  0
 10 11  1  0  0  0  0
 11 12  1  0  0  0  0
 11 14  1  0  0  0  0
 12 13  1  0  0  0  0
 14 16  1  0  0  0  0
M  END
> <Index>
21562

> <PropertyFieldDistance>
nan

$$$$
885476
BBcorina  12272117083D 1   1.00000     0.00000 
CORINA 4.3.0 0026  30.10.2019
 15 16  0  0  0  0  0  0  0  0999 V2000
  -34.6528    6.6056  -41.7402 N   0  0  0  0  0  0  0  0  0  0  0  0
  -35.2347    5.8725  -42.8725 C   0  0  0  0  0  0  0  0  0  0  0  0
  -36.5244    5.1793  -42.4246 C   0  0  0  0  0  0  0  0  0  0  0  0
  -37.0941    4.3694  -43.5915 C   0  0  0  0  0  0  0  0  0  0  0  0
  -36.1068    3.3727  -44.0254 N   0  0  0  0  0  0  0  0  0  0  0  0
  -36.6704    2.4855  -45.0517 C   0  0  0  0  0  0  0  0  0  0  0  0
  -35.5712    1.6434  -45.6464 C   0  0  0  0  0  0  0  0  0  0  0  0
  -35.3319    0.3787  -45.1439 C   0  0  0  0  0  0  0  0  0  0  0  0
  -34.3213   -0.3899  -45.7013 C   0  0  0  0  0  0  0  0  0  0  0  0
  -33.5795    0.1492  -46.7410 C   0  0  0  0  0  0  0  0  0  0  0  0
  -33.8733    1.4239  -47.1878 C   0  0  0  0  0  0  0  0  0  0  0  0
  -34.8452    2.1243  -46.6369 N   0  0  0  0  0  0  0  0  0  0  0  0
  -34.8772    4.0170  -44.5045 C   0  0  0  0  0  0  0  0  0  0  0  0
  -34.2413    4.8164  -43.3649 C   0  0  0  0  0  0  0  0  0  0  0  0
  -34.1849    5.5345  -40.4921 X   0  0  0  0  0  0  0  0  0  0  0  0
  1  2  1  0  0  0  0
  1 15  1  0  0  0  0
  2  3  1  0  0  0  0
  2 14  1  0  0  0  0
  3  4  1  0  0  0  0
  4  5  1  0  0  0  0
  5  6  1  0  0  0  0
  5 13  1  0  0  0  0
  6  7  1  0  0  0  0
  7  8  2  0  0  0  0
  7 12  1  0  0  0  0
  8  9  1  0  0  0  0
  9 10  2  0  0  0  0
 10 11  1  0  0  0  0
 11 12  2  0  0  0  0
 13 14  1  0  0  0  0
M  END
> <Index>
21563

> <PropertyFieldDistance>
nan

$$$$
875344
BBcorina  12272117083D 1   1.00000     0.00000 
CORINA 4.3.0 0026  30.10.2019
 16 17  0  0  0  0  0  0  0  0999 V2000
  -36.8075    3.5732  -47.4230 C   0  0  0  0  0  0  0  0  0  0  0  0
  -35.7822    2.4925  -47.1952 C   0  0  0  0  0  0  0  0  0  0  0  0
  -34.9395    2.1117  -48.2225 C   0  0  0  0  0  0  0  0  0  0  0  0
  -34.0027    1.1163  -48.0152 C   0  0  0  0  0  0  0  0  0  0  0  0
  -33.9055    0.5055  -46.7791 C   0  0  0  0  0  0  0  0  0  0  0  0
  -34.7446    0.8903  -45.7499 C   0  0  0  0  0  0  0  0  0  0  0  0
  -35.6810    1.8855  -45.9572 C   0  0  0  0  0  0  0  0  0  0  0  0
  -36.5959    2.3045  -44.8354 C   0  0  0  0  0  0  0  0  0  0  0  0
  -36.1715    3.6133  -44.3204 N   0  0  0  0  0  0  0  0  0  0  0  0
  -36.9818    4.0109  -43.1622 C   0  0  0  0  0  0  0  0  0  0  0  0
  -36.6115    5.4358  -42.7441 C   0  0  0  0  0  0  0  0  0  0  0  0
  -35.1226    5.4883  -42.3910 C   0  0  0  0  0  0  0  0  0  0  0  0
  -34.3033    5.0233  -43.5981 C   0  0  0  0  0  0  0  0  0  0  0  0
  -34.7404    3.6105  -43.9916 C   0  0  0  0  0  0  0  0  0  0  0  0
  -34.7473    6.8655  -42.0440 N   0  0  0  0  0  0  0  0  0  0  0  0
  -35.1448    7.9460  -43.3083 X   0  0  0  0  0  0  0  0  0  0  0  0
  1  2  1  0  0  0  0
  2  3  2  0  0  0  0
  2  7  1  0  0  0  0
  3  4  1  0  0  0  0
  4  5  2  0  0  0  0
  5  6  1  0  0  0  0
  6  7  2  0  0  0  0
  7  8  1  0  0  0  0
  8  9  1  0  0  0  0
  9 10  1  0  0  0  0
  9 14  1  0  0  0  0
 10 11  1  0  0  0  0
 11 12  1  0  0  0  0
 12 13  1  0  0  0  0
 12 15  1  0  0  0  0
 13 14  1  0  0  0  0
 15 16  1  0  0  0  0
M  END
> <Index>
21564

> <PropertyFieldDistance>
nan

$$$$
820924
BBcorina  12272117083D 1   1.00000     0.00000 
CORINA 4.3.0 0026  30.10.2019
 16 17  0  0  0  0  0  0  0  0999 V2000
  -34.6288    6.6359  -41.6934 C   0  0  0  0  0  0  0  0  0  0  0  0
  -35.2349    5.8724  -42.8726 C   0  0  0  0  0  0  0  0  0  0  0  0
  -36.5246    5.1791  -42.4247 C   0  0  0  0  0  0  0  0  0  0  0  0
  -37.0943    4.3692  -43.5916 C   0  0  0  0  0  0  0  0  0  0  0  0
  -36.1069    3.3726  -44.0255 N   0  0  0  0  0  0  0  0  0  0  0  0
  -36.6705    2.4854  -45.0517 C   0  0  0  0  0  0  0  0  0  0  0  0
  -35.5714    1.6433  -45.6465 C   0  0  0  0  0  0  0  0  0  0  0  0
  -35.2615    0.4177  -45.0862 C   0  0  0  0  0  0  0  0  0  0  0  0
  -34.2547   -0.3566  -45.6287 C   0  0  0  0  0  0  0  0  0  0  0  0
  -33.5532    0.0972  -46.7386 C   0  0  0  0  0  0  0  0  0  0  0  0
  -32.5341   -0.6831  -47.2895 N   0  0  0  0  0  0  0  0  0  0  0  0
  -33.8671    1.3289  -47.2988 C   0  0  0  0  0  0  0  0  0  0  0  0
  -34.8788    2.0955  -46.7547 C   0  0  0  0  0  0  0  0  0  0  0  0
  -34.8774    4.0169  -44.5045 C   0  0  0  0  0  0  0  0  0  0  0  0
  -34.2403    4.8172  -43.3645 C   0  0  0  0  0  0  0  0  0  0  0  0
  -32.1488   -2.1988  -46.5979 X   0  0  0  0  0  0  0  0  0  0  0  0
  1  2  1  0  0  0  0
  2  3  1  0  0  0  0
  2 15  1  0  0  0  0
  3  4  1  0  0  0  0
  4  5  1  0  0  0  0
  5  6  1  0  0  0  0
  5 14  1  0  0  0  0
  6  7  1  0  0  0  0
  7  8  2  0  0  0  0
  7 13  1  0  0  0  0
  8  9  1  0  0  0  0
  9 10  2  0  0  0  0
 10 11  1  0  0  0  0
 10 12  1  0  0  0  0
 11 16  1  0  0  0  0
 12 13  2  0  0  0  0
 14 15  1  0  0  0  0
M  END
> <Index>
21592

> <PropertyFieldDistance>
nan

$$$$
677234
BBcorina  12272117083D 1   1.00000     0.00000 
CORINA 4.3.0 0026  30.10.2019
 16 17  0  0  0  0  0  0  0  0999 V2000
  -35.1413    6.1767  -41.1520 C   0  0  0  0  0  0  0  0  0  0  0  0
  -35.3701    5.5061  -42.4388 N   0  0  0  0  0  0  0  0  0  0  0  0
  -36.5510    4.6337  -42.3754 C   0  0  0  0  0  0  0  0  0  0  0  0
  -36.8015    4.0171  -43.7537 C   0  0  0  0  0  0  0  0  0  0  0  0
  -35.6127    3.2605  -44.1718 N   0  0  0  0  0  0  0  0  0  0  0  0
  -35.8414    2.5898  -45.4587 C   0  0  0  0  0  0  0  0  0  0  0  0
  -37.1830    1.9038  -45.4361 C   0  0  0  0  0  0  0  0  0  0  0  0
  -38.3128    2.5841  -45.8523 C   0  0  0  0  0  0  0  0  0  0  0  0
  -39.5438    1.9583  -45.8329 C   0  0  0  0  0  0  0  0  0  0  0  0
  -39.6464    0.6442  -45.3946 C   0  0  0  0  0  0  0  0  0  0  0  0
  -40.8899    0.0086  -45.3732 N   0  0  0  0  0  0  0  0  0  0  0  0
  -38.5095   -0.0362  -44.9772 C   0  0  0  0  0  0  0  0  0  0  0  0
  -37.2807    0.5936  -45.0046 C   0  0  0  0  0  0  0  0  0  0  0  0
  -34.4317    4.1328  -44.2352 C   0  0  0  0  0  0  0  0  0  0  0  0
  -34.1817    4.7494  -42.8570 C   0  0  0  0  0  0  0  0  0  0  0  0
  -42.2883    0.8481  -45.8869 X   0  0  0  0  0  0  0  0  0  0  0  0
  1  2  1  0  0  0  0
  2  3  1  0  0  0  0
  2 15  1  0  0  0  0
  3  4  1  0  0  0  0
  4  5  1  0  0  0  0
  5  6  1  0  0  0  0
  5 14  1  0  0  0  0
  6  7  1  0  0  0  0
  7  8  2  0  0  0  0
  7 13  1  0  0  0  0
  8  9  1  0  0  0  0
  9 10  2  0  0  0  0
 10 11  1  0  0  0  0
 10 12  1  0  0  0  0
 11 16  1  0  0  0  0
 12 13  2  0  0  0  0
 14 15  1  0  0  0  0
M  END
> <Index>
21594

> <PropertyFieldDistance>
nan

$$$$
17830420
BBcorina  12272117083D 1   1.00000     0.00000 
CORINA 4.3.0 0026  30.10.2019
 11 11  0  0  0  0  0  0  0  0999 V2000
  -36.4771    2.4850  -44.9538 C   0  0  0  0  0  0  0  0  0  0  0  0
  -35.9030    3.4810  -44.0456 N   0  0  0  0  0  0  0  0  0  0  0  0
  -36.6709    3.9294  -42.8726 C   0  0  0  0  0  0  0  0  0  0  0  0
  -37.1499    5.3613  -43.1191 C   0  0  0  0  0  0  0  0  0  0  0  0
  -36.0927    6.3654  -42.6978 C   0  0  0  0  0  0  0  0  0  0  0  0
  -34.8383    6.3295  -43.5519 C   0  0  0  0  0  0  0  0  0  0  0  0
  -34.0879    5.0097  -43.3580 C   0  0  0  0  0  0  0  0  0  0  0  0
  -32.6671    5.1977  -43.6806 N   0  0  0  0  0  0  0  0  0  0  0  0
  -34.6859    3.9713  -44.2840 C   0  0  0  0  0  0  0  0  0  0  0  0
  -34.0577    3.5875  -45.2477 O   0  0  0  0  0  0  0  0  0  0  0  0
  -31.6851    4.1423  -42.7609 X   0  0  0  0  0  0  0  0  0  0  0  0
  1  2  1  0  0  0  0
  2  3  1  0  0  0  0
  2  9  1  0  0  0  0
  3  4  1  0  0  0  0
  4  5  1  0  0  0  0
  5  6  1  0  0  0  0
  6  7  1  0  0  0  0
  7  8  1  0  0  0  0
  7  9  1  0  0  0  0
  8 11  1  0  0  0  0
  9 10  2  0  0  0  0
M  END
> <Index>
21656

> <PropertyFieldDistance>
nan

$$$$
14934748
BBcorina  12272117083D 1   1.00000     0.00000 
CORINA 4.3.0 0026  30.10.2019
 12 12  0  0  0  0  0  0  0  0999 V2000
  -37.5768    5.3787  -41.4174 C   0  0  0  0  0  0  0  0  0  0  0  0
  -36.7015    5.3323  -42.6714 C   0  0  0  0  0  0  0  0  0  0  0  0
  -36.9622    4.0285  -43.4332 C   0  0  0  0  0  0  0  0  0  0  0  0
  -36.0119    3.9180  -44.5479 N   0  0  0  0  0  0  0  0  0  0  0  0
  -34.6279    3.8368  -44.0622 C   0  0  0  0  0  0  0  0  0  0  0  0
  -34.2713    5.1388  -43.3274 C   0  0  0  0  0  0  0  0  0  0  0  0
  -35.2828    5.3721  -42.2854 N   0  0  0  0  0  0  0  0  0  0  0  0
  -34.8360    5.6786  -40.7206 S   0  0  0  0  0  0  0  0  0  0  0  0
  -33.4558    5.3429  -40.6781 O   0  0  0  0  0  0  0  0  0  0  0  0
  -35.7871    4.9686  -39.9392 O   0  0  0  0  0  0  0  0  0  0  0  0
  -35.0620    7.4680  -40.5274 C   0  0  0  0  0  0  0  0  0  0  0  0
  -36.3905    2.5819  -45.5459 X   0  0  0  0  0  0  0  0  0  0  0  0
  1  2  1  0  0  0  0
  2  3  1  0  0  0  0
  2  7  1  0  0  0  0
  3  4  1  0  0  0  0
  4  5  1  0  0  0  0
  4 12  1  0  0  0  0
  5  6  1  0  0  0  0
  6  7  1  0  0  0  0
  7  8  1  0  0  0  0
  8  9  2  0  0  0  0
  8 10  2  0  0  0  0
  8 11  1  0  0  0  0
M  END
> <Index>
21675

> <PropertyFieldDistance>
nan

$$$$
10477984
BBcorina  12272117083D 1   1.00000     0.00000 
CORINA 4.3.0 0026  30.10.2019
  8  8  0  0  0  0  0  0  0  0999 V2000
  -40.3335    2.8676  -44.9853 C   0  0  0  0  0  0  0  0  0  0  0  0
  -39.1157    3.6151  -45.0040 O   0  0  0  0  0  0  0  0  0  0  0  0
  -38.4731    3.7110  -43.7312 C   0  0  0  0  0  0  0  0  0  0  0  0
  -37.1869    4.5279  -43.8695 C   0  0  0  0  0  0  0  0  0  0  0  0
  -36.4760    4.7969  -42.5309 C   0  0  0  0  0  0  0  0  0  0  0  0
  -35.1655    4.4909  -43.2783 C   0  0  0  0  0  0  0  0  0  0  0  0
  -36.0008    3.7170  -44.2231 N   0  0  0  0  0  0  0  0  0  0  0  0
  -35.5227    4.0031  -45.8399 X   0  0  0  0  0  0  0  0  0  0  0  0
  1  2  1  0  0  0  0
  2  3  1  0  0  0  0
  3  4  1  0  0  0  0
  4  5  1  0  0  0  0
  4  7  1  0  0  0  0
  5  6  1  0  0  0  0
  6  7  1  0  0  0  0
  7  8  1  0  0  0  0
M  END
> <Index>
21677

> <PropertyFieldDistance>
nan

$$$$
11352966
BBcorina  12272117083D 1   1.00000     0.00000 
CORINA 4.3.0 0026  30.10.2019
 11 11  0  0  0  0  0  0  0  0999 V2000
  -36.4492    4.1045  -41.3788 C   0  0  0  0  0  0  0  0  0  0  0  0
  -36.6101    5.1169  -42.5144 C   0  0  0  0  0  0  0  0  0  0  0  0
  -37.6832    6.1405  -42.1381 C   0  0  0  0  0  0  0  0  0  0  0  0
  -37.0250    4.3873  -43.7948 C   0  0  0  0  0  0  0  0  0  0  0  0
  -35.9554    3.4606  -44.1930 N   0  0  0  0  0  0  0  0  0  0  0  0
  -34.6941    4.1836  -44.4110 C   0  0  0  0  0  0  0  0  0  0  0  0
  -34.3026    4.9152  -43.1245 C   0  0  0  0  0  0  0  0  0  0  0  0
  -33.0334    5.7342  -43.3684 C   0  0  0  0  0  0  0  0  0  0  0  0
  -32.6059    6.3274  -42.1406 O   0  0  0  0  0  0  0  0  0  0  0  0
  -35.3667    5.7881  -42.7357 O   0  0  0  0  0  0  0  0  0  0  0  0
  -36.4010    2.5722  -45.5846 X   0  0  0  0  0  0  0  0  0  0  0  0
  1  2  1  0  0  0  0
  2  3  1  0  0  0  0
  2  4  1  0  0  0  0
  2 10  1  0  0  0  0
  4  5  1  0  0  0  0
  5  6  1  0  0  0  0
  5 11  1  0  0  0  0
  6  7  1  0  0  0  0
  7  8  1  0  0  0  0
  7 10  1  0  0  0  0
  8  9  1  0  0  0  0
M  END
> <Index>
21678

> <PropertyFieldDistance>
nan

$$$$
9395712
BBcorina  12272117083D 1   1.00000     0.00000 
CORINA 4.3.0 0026  30.10.2019
 12 13  0  0  0  0  0  0  0  0999 V2000
  -36.0048    3.6174  -44.3783 N   0  0  0  0  0  0  0  0  0  0  0  0
  -37.0058    4.4935  -43.7535 C   0  0  0  0  0  0  0  0  0  0  0  0
  -36.5671    4.8278  -42.3259 C   0  0  0  0  0  0  0  0  0  0  0  0
  -35.2501    5.4788  -42.3607 N   0  0  0  0  0  0  0  0  0  0  0  0
  -34.2491    4.6028  -42.9854 C   0  0  0  0  0  0  0  0  0  0  0  0
  -34.6877    4.2684  -44.4130 C   0  0  0  0  0  0  0  0  0  0  0  0
  -34.8516    5.8610  -41.0905 C   0  0  0  0  0  0  0  0  0  0  0  0
  -35.5352    5.6808  -39.9852 N   0  0  0  0  0  0  0  0  0  0  0  0
  -34.8403    6.1767  -38.9473 C   0  0  0  0  0  0  0  0  0  0  0  0
  -33.6867    6.6832  -39.4146 C   0  0  0  0  0  0  0  0  0  0  0  0
  -33.6851    6.4868  -40.7773 N   0  0  0  0  0  0  0  0  0  0  0  0
  -36.4968    3.1456  -45.9466 X   0  0  0  0  0  0  0  0  0  0  0  0
  1  2  1  0  0  0  0
  1  6  1  0  0  0  0
  1 12  1  0  0  0  0
  2  3  1  0  0  0  0
  3  4  1  0  0  0  0
  4  5  1  0  0  0  0
  4  7  1  0  0  0  0
  5  6  1  0  0  0  0
  7  8  2  0  0  0  0
  7 11  1  0  0  0  0
  8  9  1  0  0  0  0
  9 10  2  0  0  0  0
 10 11  1  0  0  0  0
M  END
> <Index>
21693

> <PropertyFieldDistance>
nan

$$$$
15263126
BBcorina  12272117083D 1   1.00000     0.00000 
CORINA 4.3.0 0026  30.10.2019
 12 12  0  0  0  0  0  0  0  0999 V2000
  -37.3581   -1.3120  -49.2725 C   0  0  0  0  0  0  0  0  0  0  0  0
  -37.1838   -0.1181  -48.3318 C   0  0  0  0  0  0  0  0  0  0  0  0
  -38.4650    0.0583  -47.5142 C   0  0  0  0  0  0  0  0  0  0  0  0
  -36.9538    1.1510  -49.1743 C   0  0  0  0  0  0  0  0  0  0  0  0
  -36.3492    2.3090  -48.3573 C   0  0  0  0  0  0  0  0  0  0  0  0
  -36.9710    2.4372  -46.9930 C   0  0  0  0  0  0  0  0  0  0  0  0
  -36.1059    1.6538  -45.9847 C   0  0  0  0  0  0  0  0  0  0  0  0
  -36.3933    2.1751  -44.5752 C   0  0  0  0  0  0  0  0  0  0  0  0
  -36.0173    3.5926  -44.4913 N   0  0  0  0  0  0  0  0  0  0  0  0
  -36.3702    0.2230  -46.0210 C   0  0  0  0  0  0  0  0  0  0  0  0
  -36.0423   -0.4008  -47.3929 C   0  0  0  0  0  0  0  0  0  0  0  0
  -36.3229    4.2163  -42.9287 X   0  0  0  0  0  0  0  0  0  0  0  0
  1  2  1  0  0  0  0
  2  3  1  0  0  0  0
  2  4  1  0  0  0  0
  2 11  1  0  0  0  0
  4  5  1  0  0  0  0
  5  6  1  0  0  0  0
  6  7  1  0  0  0  0
  7  8  1  0  0  0  0
  7 10  1  0  0  0  0
  8  9  1  0  0  0  0
  9 12  1  0  0  0  0
 10 11  1  0  0  0  0
M  END
> <Index>
21696

> <PropertyFieldDistance>
nan

$$$$
16466074
BBcorina  12272117083D 1   1.00000     0.00000 
CORINA 4.3.0 0026  30.10.2019
 13 14  0  0  0  0  0  0  0  0999 V2000
  -34.3923    5.1031  -38.8933 S   0  0  0  0  0  0  0  0  0  0  0  0
  -34.5813    6.4551  -40.0072 C   0  0  0  0  0  0  0  0  0  0  0  0
  -34.4025    7.7258  -39.7299 N   0  0  0  0  0  0  0  0  0  0  0  0
  -34.6255    8.4368  -40.7770 N   0  0  0  0  0  0  0  0  0  0  0  0
  -34.9571    7.6694  -41.7765 C   0  0  0  0  0  0  0  0  0  0  0  0
  -34.9408    6.3795  -41.3222 N   0  0  0  0  0  0  0  0  0  0  0  0
  -35.2463    5.1683  -42.0874 C   0  0  0  0  0  0  0  0  0  0  0  0
  -36.6796    5.2477  -42.6204 C   0  0  0  0  0  0  0  0  0  0  0  0
  -36.9723    4.0084  -43.4693 C   0  0  0  0  0  0  0  0  0  0  0  0
  -36.0194    3.9412  -44.5845 N   0  0  0  0  0  0  0  0  0  0  0  0
  -34.6397    3.8168  -44.0973 C   0  0  0  0  0  0  0  0  0  0  0  0
  -34.2763    5.0495  -43.2662 C   0  0  0  0  0  0  0  0  0  0  0  0
  -36.4111    2.6615  -45.6490 X   0  0  0  0  0  0  0  0  0  0  0  0
  1  2  1  0  0  0  0
  2  3  2  0  0  0  0
  2  6  1  0  0  0  0
  3  4  1  0  0  0  0
  4  5  2  0  0  0  0
  5  6  1  0  0  0  0
  6  7  1  0  0  0  0
  7  8  1  0  0  0  0
  7 12  1  0  0  0  0
  8  9  1  0  0  0  0
  9 10  1  0  0  0  0
 10 11  1  0  0  0  0
 10 13  1  0  0  0  0
 11 12  1  0  0  0  0
M  END
> <Index>
21750

> <PropertyFieldDistance>
nan

$$$$
15564932
BBcorina  12272117083D 1   1.00000     0.00000 
CORINA 4.3.0 0026  30.10.2019
 13 14  0  0  0  0  0  0  0  0999 V2000
  -36.4762    2.4760  -44.9593 C   0  0  0  0  0  0  0  0  0  0  0  0
  -35.9076    3.4745  -44.0506 N   0  0  0  0  0  0  0  0  0  0  0  0
  -36.6764    3.9289  -42.8839 C   0  0  0  0  0  0  0  0  0  0  0  0
  -37.1226    5.3744  -43.1119 C   0  0  0  0  0  0  0  0  0  0  0  0
  -37.4918    5.5957  -44.5727 C   0  0  0  0  0  0  0  0  0  0  0  0
  -36.2352    5.4868  -45.4418 C   0  0  0  0  0  0  0  0  0  0  0  0
  -35.2324    6.5470  -44.9767 C   0  0  0  0  0  0  0  0  0  0  0  0
  -34.8871    6.3159  -43.5112 C   0  0  0  0  0  0  0  0  0  0  0  0
  -34.1074    5.0095  -43.3444 C   0  0  0  0  0  0  0  0  0  0  0  0
  -34.6846    3.9744  -44.2830 C   0  0  0  0  0  0  0  0  0  0  0  0
  -34.0447    3.5974  -45.2418 O   0  0  0  0  0  0  0  0  0  0  0  0
  -36.0832    6.3040  -42.6691 N   0  0  0  0  0  0  0  0  0  0  0  0
  -35.6762    6.0331  -41.0305 X   0  0  0  0  0  0  0  0  0  0  0  0
  1  2  1  0  0  0  0
  2  3  1  0  0  0  0
  2 10  1  0  0  0  0
  3  4  1  0  0  0  0
  4  5  1  0  0  0  0
  4 12  1  0  0  0  0
  5  6  1  0  0  0  0
  6  7  1  0  0  0  0
  7  8  1  0  0  0  0
  8  9  1  0  0  0  0
  8 12  1  0  0  0  0
  9 10  1  0  0  0  0
 10 11  2  0  0  0  0
 12 13  1  0  0  0  0
M  END
> <Index>
21752

> <PropertyFieldDistance>
nan

$$$$
16033544
BBcorina  12272117083D 1   1.00000     0.00000 
CORINA 4.3.0 0026  30.10.2019
 13 13  0  0  0  0  0  0  0  0999 V2000
  -38.4000    3.9387  -43.7649 C   0  0  0  0  0  0  0  0  0  0  0  0
  -36.9552    3.9850  -43.2635 C   0  0  0  0  0  0  0  0  0  0  0  0
  -36.6388    5.3903  -42.7450 C   0  0  0  0  0  0  0  0  0  0  0  0
  -35.2662    5.4496  -42.3478 O   0  0  0  0  0  0  0  0  0  0  0  0
  -34.3485    5.1369  -43.3992 C   0  0  0  0  0  0  0  0  0  0  0  0
  -34.6417    3.7290  -43.9243 C   0  0  0  0  0  0  0  0  0  0  0  0
  -34.4066    2.7084  -42.8090 C   0  0  0  0  0  0  0  0  0  0  0  0
  -33.0467    2.7812  -42.3757 O   0  0  0  0  0  0  0  0  0  0  0  0
  -33.7161    3.4202  -45.1028 C   0  0  0  0  0  0  0  0  0  0  0  0
  -33.9440    4.3991  -46.1741 N   0  0  0  0  0  0  0  0  0  0  0  0
  -36.0415    3.6587  -44.3681 N   0  0  0  0  0  0  0  0  0  0  0  0
  -36.3490    2.3379  -44.9329 C   0  0  0  0  0  0  0  0  0  0  0  0
  -32.9271    4.0898  -47.5135 X   0  0  0  0  0  0  0  0  0  0  0  0
  1  2  1  0  0  0  0
  2  3  1  0  0  0  0
  2 11  1  0  0  0  0
  3  4  1  0  0  0  0
  4  5  1  0  0  0  0
  5  6  1  0  0  0  0
  6  7  1  0  0  0  0
  6  9  1  0  0  0  0
  6 11  1  0  0  0  0
  7  8  1  0  0  0  0
  9 10  1  0  0  0  0
 10 13  1  0  0  0  0
 11 12  1  0  0  0  0
M  END
> <Index>
21754

> <PropertyFieldDistance>
nan

$$$$
15766766
BBcorina  12272117083D 1   1.00000     0.00000 
CORINA 4.3.0 0026  30.10.2019
 11 12  0  0  0  0  0  0  0  0999 V2000
  -32.9525    4.3536  -42.5881 N   0  0  0  0  0  0  0  0  0  0  0  0
  -34.1943    4.9265  -43.1244 C   0  0  0  0  0  0  0  0  0  0  0  0
  -35.2738    4.9362  -42.0337 C   0  0  0  0  0  0  0  0  0  0  0  0
  -36.6303    5.2588  -42.6668 C   0  0  0  0  0  0  0  0  0  0  0  0
  -37.0831    4.0822  -43.5394 C   0  0  0  0  0  0  0  0  0  0  0  0
  -35.9882    3.7144  -44.4366 N   0  0  0  0  0  0  0  0  0  0  0  0
  -36.0297    2.9728  -45.5602 C   0  0  0  0  0  0  0  0  0  0  0  0
  -34.8060    2.9133  -46.0270 N   0  0  0  0  0  0  0  0  0  0  0  0
  -34.0137    3.5757  -45.2555 N   0  0  0  0  0  0  0  0  0  0  0  0
  -34.6913    4.0816  -44.2704 C   0  0  0  0  0  0  0  0  0  0  0  0
  -33.1763    2.7195  -42.1367 X   0  0  0  0  0  0  0  0  0  0  0  0
  1  2  1  0  0  0  0
  1 11  1  0  0  0  0
  2  3  1  0  0  0  0
  2 10  1  0  0  0  0
  3  4  1  0  0  0  0
  4  5  1  0  0  0  0
  5  6  1  0  0  0  0
  6  7  1  0  0  0  0
  6 10  1  0  0  0  0
  7  8  2  0  0  0  0
  8  9  1  0  0  0  0
  9 10  2  0  0  0  0
M  END
> <Index>
21800

> <PropertyFieldDistance>
nan

$$$$
16507594
BBcorina  12272117083D 1   1.00000     0.00000 
CORINA 4.3.0 0026  30.10.2019
 15 17  0  0  0  0  0  0  0  0999 V2000
  -35.8714   -2.5662  -46.6499 C   0  0  0  0  0  0  0  0  0  0  0  0
  -36.5761   -1.7229  -47.5633 O   0  0  0  0  0  0  0  0  0  0  0  0
  -36.2102   -0.3439  -47.4815 C   0  0  0  0  0  0  0  0  0  0  0  0
  -34.7186   -0.1931  -47.7868 C   0  0  0  0  0  0  0  0  0  0  0  0
  -34.3268    1.2834  -47.6994 C   0  0  0  0  0  0  0  0  0  0  0  0
  -35.1394    2.0877  -48.7162 C   0  0  0  0  0  0  0  0  0  0  0  0
  -36.6310    1.9368  -48.4110 C   0  0  0  0  0  0  0  0  0  0  0  0
  -36.9185    2.4581  -47.0014 C   0  0  0  0  0  0  0  0  0  0  0  0
  -36.1059    1.6538  -45.9846 C   0  0  0  0  0  0  0  0  0  0  0  0
  -36.3933    2.1751  -44.5753 C   0  0  0  0  0  0  0  0  0  0  0  0
  -36.0172    3.5927  -44.4913 N   0  0  0  0  0  0  0  0  0  0  0  0
  -34.6143    1.8046  -46.2899 C   0  0  0  0  0  0  0  0  0  0  0  0
  -36.4976    0.1774  -46.0722 C   0  0  0  0  0  0  0  0  0  0  0  0
  -37.0227    0.4604  -48.4984 C   0  0  0  0  0  0  0  0  0  0  0  0
  -36.3230    4.2163  -42.9287 X   0  0  0  0  0  0  0  0  0  0  0  0
  1  2  1  0  0  0  0
  2  3  1  0  0  0  0
  3  4  1  0  0  0  0
  3 13  1  0  0  0  0
  3 14  1  0  0  0  0
  4  5  1  0  0  0  0
  5  6  1  0  0  0  0
  5 12  1  0  0  0  0
  6  7  1  0  0  0  0
  7  8  1  0  0  0  0
  7 14  1  0  0  0  0
  8  9  1  0  0  0  0
  9 10  1  0  0  0  0
  9 12  1  0  0  0  0
  9 13  1  0  0  0  0
 10 11  1  0  0  0  0
 11 15  1  0  0  0  0
M  END
> <Index>
21808

> <PropertyFieldDistance>
nan

$$$$
15783998
BBcorina  12272117083D 1   1.00000     0.00000 
CORINA 4.3.0 0026  30.10.2019
 10 11  0  0  0  0  0  0  0  0999 V2000
  -36.1198    4.5195  -40.1996 O   0  0  0  0  0  0  0  0  0  0  0  0
  -36.0043    4.0732  -41.5522 C   0  0  0  0  0  0  0  0  0  0  0  0
  -34.5209    3.9425  -41.9436 C   0  0  0  0  0  0  0  0  0  0  0  0
  -34.3002    4.9198  -43.1224 C   0  0  0  0  0  0  0  0  0  0  0  0
  -35.3915    6.0027  -42.9020 C   0  0  0  0  0  0  0  0  0  0  0  0
  -36.6108    5.1232  -42.5129 C   0  0  0  0  0  0  0  0  0  0  0  0
  -37.0349    4.3790  -43.7923 C   0  0  0  0  0  0  0  0  0  0  0  0
  -35.9562    3.4694  -44.1978 N   0  0  0  0  0  0  0  0  0  0  0  0
  -34.6851    4.1722  -44.4122 C   0  0  0  0  0  0  0  0  0  0  0  0
  -36.4007    2.5706  -45.5829 X   0  0  0  0  0  0  0  0  0  0  0  0
  1  2  1  0  0  0  0
  2  3  1  0  0  0  0
  2  6  1  0  0  0  0
  3  4  1  0  0  0  0
  4  5  1  0  0  0  0
  4  9  1  0  0  0  0
  5  6  1  0  0  0  0
  6  7  1  0  0  0  0
  7  8  1  0  0  0  0
  8  9  1  0  0  0  0
  8 10  1  0  0  0  0
M  END
> <Index>
21818

> <PropertyFieldDistance>
nan

$$$$
9050874
BBcorina  12272117083D 1   1.00000     0.00000 
CORINA 4.3.0 0026  30.10.2019
 16 16  0  0  0  0  0  0  0  0999 V2000
  -35.0702    7.1497  -42.2687 C   0  0  0  0  0  0  0  0  0  0  0  0
  -35.2880    5.6527  -42.4976 C   0  0  0  0  0  0  0  0  0  0  0  0
  -36.7431    5.4051  -42.9018 C   0  0  0  0  0  0  0  0  0  0  0  0
  -36.9669    3.9021  -43.0962 C   0  0  0  0  0  0  0  0  0  0  0  0
  -35.9794    3.3977  -44.0600 N   0  0  0  0  0  0  0  0  0  0  0  0
  -34.5546    3.6595  -43.8141 C   0  0  0  0  0  0  0  0  0  0  0  0
  -34.3578    5.1652  -43.6118 C   0  0  0  0  0  0  0  0  0  0  0  0
  -34.6746    5.8732  -44.8594 N   0  0  0  0  0  0  0  0  0  0  0  0
  -36.3728    2.7082  -45.1492 C   0  0  0  0  0  0  0  0  0  0  0  0
  -35.5463    2.2962  -45.9389 O   0  0  0  0  0  0  0  0  0  0  0  0
  -37.6818    2.4758  -45.3623 O   0  0  0  0  0  0  0  0  0  0  0  0
  -38.0326    1.7267  -46.5556 C   0  0  0  0  0  0  0  0  0  0  0  0
  -37.3733    0.3471  -46.5039 C   0  0  0  0  0  0  0  0  0  0  0  0
  -39.5523    1.5635  -46.6268 C   0  0  0  0  0  0  0  0  0  0  0  0
  -37.5421    2.4804  -47.7934 C   0  0  0  0  0  0  0  0  0  0  0  0
  -33.3033    5.9651  -45.8769 X   0  0  0  0  0  0  0  0  0  0  0  0
  1  2  1  0  0  0  0
  2  3  1  0  0  0  0
  2  7  1  0  0  0  0
  3  4  1  0  0  0  0
  4  5  1  0  0  0  0
  5  6  1  0  0  0  0
  5  9  1  0  0  0  0
  6  7  1  0  0  0  0
  7  8  1  0  0  0  0
  8 16  1  0  0  0  0
  9 10  2  0  0  0  0
  9 11  1  0  0  0  0
 11 12  1  0  0  0  0
 12 13  1  0  0  0  0
 12 14  1  0  0  0  0
 12 15  1  0  0  0  0
M  END
> <Index>
21824

> <PropertyFieldDistance>
nan

$$$$
16663094
BBcorina  12272117083D 1   1.00000     0.00000 
CORINA 4.3.0 0026  30.10.2019
 12 13  0  0  0  0  0  0  0  0999 V2000
  -36.4713    6.0543  -39.3773 C   0  0  0  0  0  0  0  0  0  0  0  0
  -36.6012    6.6355  -40.7866 C   0  0  0  0  0  0  0  0  0  0  0  0
  -37.5639    5.7748  -41.6407 C   0  0  0  0  0  0  0  0  0  0  0  0
  -36.5848    4.8122  -42.3379 C   0  0  0  0  0  0  0  0  0  0  0  0
  -37.0011    4.5395  -43.7856 C   0  0  0  0  0  0  0  0  0  0  0  0
  -35.9977    3.7101  -44.4531 N   0  0  0  0  0  0  0  0  0  0  0  0
  -34.6508    3.7840  -43.8962 C   0  0  0  0  0  0  0  0  0  0  0  0
  -34.3121    5.2151  -43.4405 C   0  0  0  0  0  0  0  0  0  0  0  0
  -35.3110    5.5655  -42.4143 N   0  0  0  0  0  0  0  0  0  0  0  0
  -35.2769    6.5525  -41.5182 C   0  0  0  0  0  0  0  0  0  0  0  0
  -34.3253    7.2771  -41.3178 O   0  0  0  0  0  0  0  0  0  0  0  0
  -35.9813    4.0046  -46.1374 X   0  0  0  0  0  0  0  0  0  0  0  0
  1  2  1  0  0  0  0
  2  3  1  0  0  0  0
  2 10  1  0  0  0  0
  3  4  1  0  0  0  0
  4  5  1  0  0  0  0
  4  9  1  0  0  0  0
  5  6  1  0  0  0  0
  6  7  1  0  0  0  0
  6 12  1  0  0  0  0
  7  8  1  0  0  0  0
  8  9  1  0  0  0  0
  9 10  1  0  0  0  0
 10 11  2  0  0  0  0
M  END
> <Index>
21828

> <PropertyFieldDistance>
nan

$$$$
12850028
BBcorina  12272117083D 1   1.00000     0.00000 
CORINA 4.3.0 0026  30.10.2019
  9 10  0  0  0  0  0  0  0  0999 V2000
  -35.9860    3.9309  -44.6352 N   0  0  0  0  0  0  0  0  0  0  0  0
  -37.0700    4.1495  -43.6439 C   0  0  0  0  0  0  0  0  0  0  0  0
  -36.4340    5.0400  -42.5567 C   0  0  0  0  0  0  0  0  0  0  0  0
  -36.8260    4.4871  -41.1694 C   0  0  0  0  0  0  0  0  0  0  0  0
  -35.5846    4.5070  -40.4095 O   0  0  0  0  0  0  0  0  0  0  0  0
  -34.5574    4.0787  -41.3294 C   0  0  0  0  0  0  0  0  0  0  0  0
  -34.9067    4.7702  -42.6650 C   0  0  0  0  0  0  0  0  0  0  0  0
  -34.7677    3.7426  -43.8072 C   0  0  0  0  0  0  0  0  0  0  0  0
  -36.2983    2.5469  -45.5896 X   0  0  0  0  0  0  0  0  0  0  0  0
  1  2  1  0  0  0  0
  1  8  1  0  0  0  0
  1  9  1  0  0  0  0
  2  3  1  0  0  0  0
  3  4  1  0  0  0  0
  3  7  1  0  0  0  0
  4  5  1  0  0  0  0
  5  6  1  0  0  0  0
  6  7  1  0  0  0  0
  7  8  1  0  0  0  0
M  END
> <Index>
21829

> <PropertyFieldDistance>
nan

$$$$
16466164
BBcorina  12272117083D 1   1.00000     0.00000 
CORINA 4.3.0 0026  30.10.2019
 11 11  0  0  0  0  0  0  0  0999 V2000
  -37.3356    4.7067  -39.7126 O   0  0  0  0  0  0  0  0  0  0  0  0
  -36.0905    5.2558  -40.1488 C   0  0  0  0  0  0  0  0  0  0  0  0
  -35.7490    4.7071  -41.5356 C   0  0  0  0  0  0  0  0  0  0  0  0
  -36.8184    5.1379  -42.5078 C   0  0  0  0  0  0  0  0  0  0  0  0
  -37.0168    4.0268  -43.5620 C   0  0  0  0  0  0  0  0  0  0  0  0
  -36.0014    4.0383  -44.5225 N   0  0  0  0  0  0  0  0  0  0  0  0
  -34.6472    3.7813  -43.9939 C   0  0  0  0  0  0  0  0  0  0  0  0
  -34.1035    5.0793  -43.4515 C   0  0  0  0  0  0  0  0  0  0  0  0
  -34.3476    5.2077  -41.9382 C   0  0  0  0  0  0  0  0  0  0  0  0
  -34.2201    6.5803  -41.5616 O   0  0  0  0  0  0  0  0  0  0  0  0
  -36.3669    2.9778  -45.8132 X   0  0  0  0  0  0  0  0  0  0  0  0
  1  2  1  0  0  0  0
  2  3  1  0  0  0  0
  3  4  1  0  0  0  0
  3  9  1  0  0  0  0
  4  5  1  0  0  0  0
  5  6  1  0  0  0  0
  6  7  1  0  0  0  0
  6 11  1  0  0  0  0
  7  8  1  0  0  0  0
  8  9  1  0  0  0  0
  9 10  1  0  0  0  0
M  END
> <Index>
21847

> <PropertyFieldDistance>
nan

$$$$
16608494
BBcorina  12272117083D 1   1.00000     0.00000 
CORINA 4.3.0 0026  30.10.2019
 15 16  0  0  0  0  0  0  0  0999 V2000
  -36.3354    2.3076  -44.8786 C   0  0  0  0  0  0  0  0  0  0  0  0
  -35.9454    3.3417  -43.9110 N   0  0  0  0  0  0  0  0  0  0  0  0
  -37.0433    4.2897  -43.6828 C   0  0  0  0  0  0  0  0  0  0  0  0
  -36.6554    5.2624  -42.5667 C   0  0  0  0  0  0  0  0  0  0  0  0
  -35.3834    6.0133  -42.9700 C   0  0  0  0  0  0  0  0  0  0  0  0
  -34.2691    5.0008  -43.2489 C   0  0  0  0  0  0  0  0  0  0  0  0
  -34.7262    4.0356  -44.3451 C   0  0  0  0  0  0  0  0  0  0  0  0
  -34.9744    6.9038  -41.8810 N   0  0  0  0  0  0  0  0  0  0  0  0
  -34.6471    6.5142  -40.5759 N   0  0  0  0  0  0  0  0  0  0  0  0
  -34.3307    7.5849  -39.8932 C   0  0  0  0  0  0  0  0  0  0  0  0
  -34.4531    8.6986  -40.7364 C   0  0  0  0  0  0  0  0  0  0  0  0
  -34.2078   10.0386  -40.3806 N   0  0  0  0  0  0  0  0  0  0  0  0
  -34.8507    8.2557  -41.9560 C   0  0  0  0  0  0  0  0  0  0  0  0
  -35.1084    9.1075  -43.1722 C   0  0  0  0  0  0  0  0  0  0  0  0
  -34.7501   11.3051  -41.3935 X   0  0  0  0  0  0  0  0  0  0  0  0
  1  2  1  0  0  0  0
  2  3  1  0  0  0  0
  2  7  1  0  0  0  0
  3  4  1  0  0  0  0
  4  5  1  0  0  0  0
  5  6  1  0  0  0  0
  5  8  1  0  0  0  0
  6  7  1  0  0  0  0
  8  9  1  0  0  0  0
  8 13  1  0  0  0  0
  9 10  2  0  0  0  0
 10 11  1  0  0  0  0
 11 12  1  0  0  0  0
 11 13  2  0  0  0  0
 12 15  1  0  0  0  0
 13 14  1  0  0  0  0
M  END
> <Index>
21852

> <PropertyFieldDistance>
nan

$$$$
16637642
BBcorina  12272117083D 1   1.00000     0.00000 
CORINA 4.3.0 0026  30.10.2019
  8  9  0  0  0  0  0  0  0  0999 V2000
  -34.6978    3.6972  -41.2306 F   0  0  0  0  0  0  0  0  0  0  0  0
  -35.4804    3.8314  -42.3825 C   0  0  0  0  0  0  0  0  0  0  0  0
  -36.4204    5.0510  -42.5719 C   0  0  0  0  0  0  0  0  0  0  0  0
  -37.0648    4.1181  -43.6271 C   0  0  0  0  0  0  0  0  0  0  0  0
  -36.8326    3.0637  -42.5053 C   0  0  0  0  0  0  0  0  0  0  0  0
  -34.7884    3.7380  -43.7858 C   0  0  0  0  0  0  0  0  0  0  0  0
  -35.9841    3.9560  -44.6581 N   0  0  0  0  0  0  0  0  0  0  0  0
  -36.2790    2.5917  -45.6459 X   0  0  0  0  0  0  0  0  0  0  0  0
  1  2  1  0  0  0  0
  2  3  1  0  0  0  0
  2  5  1  0  0  0  0
  2  6  1  0  0  0  0
  3  4  1  0  0  0  0
  4  5  1  0  0  0  0
  4  7  1  0  0  0  0
  6  7  1  0  0  0  0
  7  8  1  0  0  0  0
M  END
> <Index>
21853

> <PropertyFieldDistance>
nan

$$$$
16495880
BBcorina  12272117083D 1   1.00000     0.00000 
CORINA 4.3.0 0026  30.10.2019
 11 11  0  0  0  0  0  0  0  0999 V2000
  -37.3879    2.8860  -42.6429 C   0  0  0  0  0  0  0  0  0  0  0  0
  -37.0533    4.0842  -43.5334 C   0  0  0  0  0  0  0  0  0  0  0  0
  -38.2914    4.4732  -44.3440 C   0  0  0  0  0  0  0  0  0  0  0  0
  -38.7109    3.3357  -45.1733 N   0  0  0  0  0  0  0  0  0  0  0  0
  -36.6371    5.2655  -42.6560 C   0  0  0  0  0  0  0  0  0  0  0  0
  -35.2760    4.9515  -42.0232 C   0  0  0  0  0  0  0  0  0  0  0  0
  -34.2216    4.9239  -43.1325 C   0  0  0  0  0  0  0  0  0  0  0  0
  -34.6999    4.0691  -44.2709 C   0  0  0  0  0  0  0  0  0  0  0  0
  -33.8824    3.6741  -45.0749 O   0  0  0  0  0  0  0  0  0  0  0  0
  -35.9754    3.7210  -44.4448 N   0  0  0  0  0  0  0  0  0  0  0  0
  -40.0949    3.7286  -46.0975 X   0  0  0  0  0  0  0  0  0  0  0  0
  1  2  1  0  0  0  0
  2  3  1  0  0  0  0
  2  5  1  0  0  0  0
  2 10  1  0  0  0  0
  3  4  1  0  0  0  0
  4 11  1  0  0  0  0
  5  6  1  0  0  0  0
  6  7  1  0  0  0  0
  7  8  1  0  0  0  0
  8  9  2  0  0  0  0
  8 10  1  0  0  0  0
M  END
> <Index>
21863

> <PropertyFieldDistance>
nan

$$$$
16608434
BBcorina  12272117083D 1   1.00000     0.00000 
CORINA 4.3.0 0026  30.10.2019
 10 10  0  0  0  0  0  0  0  0999 V2000
  -36.3258    2.4443  -45.0972 C   0  0  0  0  0  0  0  0  0  0  0  0
  -36.0592    3.1991  -43.8653 N   0  0  0  0  0  0  0  0  0  0  0  0
  -37.0921    4.2439  -43.6471 C   0  0  0  0  0  0  0  0  0  0  0  0
  -36.3980    5.2313  -42.6756 C   0  0  0  0  0  0  0  0  0  0  0  0
  -34.9354    5.2380  -43.1762 C   0  0  0  0  0  0  0  0  0  0  0  0
  -34.7700    3.9187  -43.9531 C   0  0  0  0  0  0  0  0  0  0  0  0
  -34.4365    4.2140  -45.4168 C   0  0  0  0  0  0  0  0  0  0  0  0
  -33.6561    3.0794  -43.3241 C   0  0  0  0  0  0  0  0  0  0  0  0
  -36.9909    6.5709  -42.7846 N   0  0  0  0  0  0  0  0  0  0  0  0
  -36.7610    7.4618  -41.3432 X   0  0  0  0  0  0  0  0  0  0  0  0
  1  2  1  0  0  0  0
  2  3  1  0  0  0  0
  2  6  1  0  0  0  0
  3  4  1  0  0  0  0
  4  5  1  0  0  0  0
  4  9  1  0  0  0  0
  5  6  1  0  0  0  0
  6  7  1  0  0  0  0
  6  8  1  0  0  0  0
  9 10  1  0  0  0  0
M  END
> <Index>
21872

> <PropertyFieldDistance>
nan

$$$$
16466244
BBcorina  12272117083D 1   1.00000     0.00000 
CORINA 4.3.0 0026  30.10.2019
 12 13  0  0  0  0  0  0  0  0999 V2000
  -35.9662    3.5257  -44.3193 N   0  0  0  0  0  0  0  0  0  0  0  0
  -37.2741    4.2176  -44.2619 C   0  0  0  0  0  0  0  0  0  0  0  0
  -37.2621    5.4179  -43.3019 C   0  0  0  0  0  0  0  0  0  0  0  0
  -36.5150    5.1172  -42.0270 C   0  0  0  0  0  0  0  0  0  0  0  0
  -35.1076    5.5393  -42.1970 N   0  0  0  0  0  0  0  0  0  0  0  0
  -34.3202    4.6273  -42.9101 C   0  0  0  0  0  0  0  0  0  0  0  0
  -34.8318    4.4215  -44.3502 C   0  0  0  0  0  0  0  0  0  0  0  0
  -34.4951    5.8636  -40.9017 C   0  0  0  0  0  0  0  0  0  0  0  0
  -33.0573    6.4053  -41.0118 C   0  0  0  0  0  0  0  0  0  0  0  0
  -33.4670    7.3729  -40.0247 O   0  0  0  0  0  0  0  0  0  0  0  0
  -34.8617    7.2633  -40.3734 C   0  0  0  0  0  0  0  0  0  0  0  0
  -35.9127    2.4238  -45.6258 X   0  0  0  0  0  0  0  0  0  0  0  0
  1  2  1  0  0  0  0
  1  7  1  0  0  0  0
  1 12  1  0  0  0  0
  2  3  1  0  0  0  0
  3  4  1  0  0  0  0
  4  5  1  0  0  0  0
  5  6  1  0  0  0  0
  5  8  1  0  0  0  0
  6  7  1  0  0  0  0
  8  9  1  0  0  0  0
  8 11  1  0  0  0  0
  9 10  1  0  0  0  0
 10 11  1  0  0  0  0
M  END
> <Index>
21880

> <PropertyFieldDistance>
nan

$$$$
16466246
BBcorina  12272117083D 1   1.00000     0.00000 
CORINA 4.3.0 0026  30.10.2019
 11 12  0  0  0  0  0  0  0  0999 V2000
  -34.0290    5.9534  -42.8825 N   0  0  0  0  0  0  0  0  0  0  0  0
  -34.9207    4.8112  -42.6411 C   0  0  0  0  0  0  0  0  0  0  0  0
  -36.3984    5.2604  -42.7091 C   0  0  0  0  0  0  0  0  0  0  0  0
  -37.0871    4.0771  -43.4344 C   0  0  0  0  0  0  0  0  0  0  0  0
  -36.0752    3.6549  -44.4405 N   0  0  0  0  0  0  0  0  0  0  0  0
  -34.7660    3.7662  -43.7615 C   0  0  0  0  0  0  0  0  0  0  0  0
  -36.3184    2.2786  -44.8928 C   0  0  0  0  0  0  0  0  0  0  0  0
  -37.6969    2.0738  -45.5489 C   0  0  0  0  0  0  0  0  0  0  0  0
  -36.9866    1.2976  -46.5345 O   0  0  0  0  0  0  0  0  0  0  0  0
  -35.7320    1.9679  -46.2828 C   0  0  0  0  0  0  0  0  0  0  0  0
  -34.3905    6.7087  -44.3734 X   0  0  0  0  0  0  0  0  0  0  0  0
  1  2  1  0  0  0  0
  1 11  1  0  0  0  0
  2  3  1  0  0  0  0
  2  6  1  0  0  0  0
  3  4  1  0  0  0  0
  4  5  1  0  0  0  0
  5  6  1  0  0  0  0
  5  7  1  0  0  0  0
  7  8  1  0  0  0  0
  7 10  1  0  0  0  0
  8  9  1  0  0  0  0
  9 10  1  0  0  0  0
M  END
> <Index>
21881

> <PropertyFieldDistance>
nan

$$$$
16535032
BBcorina  12272117083D 1   1.00000     0.00000 
CORINA 4.3.0 0026  30.10.2019
 12 13  0  0  0  0  0  0  0  0999 V2000
  -38.7990    4.2719  -44.8640 N   0  0  0  0  0  0  0  0  0  0  0  0
  -37.3844    3.9001  -45.0009 C   0  0  0  0  0  0  0  0  0  0  0  0
  -36.4119    4.9891  -44.5186 C   0  0  0  0  0  0  0  0  0  0  0  0
  -35.5630    3.8563  -43.9162 C   0  0  0  0  0  0  0  0  0  0  0  0
  -36.8614    3.0314  -43.8452 C   0  0  0  0  0  0  0  0  0  0  0  0
  -34.5393    3.2896  -44.8656 C   0  0  0  0  0  0  0  0  0  0  0  0
  -34.5558    1.7467  -44.7683 C   0  0  0  0  0  0  0  0  0  0  0  0
  -33.8867    1.2815  -43.5575 C   0  0  0  0  0  0  0  0  0  0  0  0
  -34.5658    1.7569  -42.2659 C   0  0  0  0  0  0  0  0  0  0  0  0
  -34.0781    3.1486  -41.9539 C   0  0  0  0  0  0  0  0  0  0  0  0
  -35.0404    4.2143  -42.5100 C   0  0  0  0  0  0  0  0  0  0  0  0
  -39.1683    4.6931  -43.2483 X   0  0  0  0  0  0  0  0  0  0  0  0
  1  2  1  0  0  0  0
  1 12  1  0  0  0  0
  2  3  1  0  0  0  0
  2  5  1  0  0  0  0
  3  4  1  0  0  0  0
  4  5  1  0  0  0  0
  4  6  1  0  0  0  0
  4 11  1  0  0  0  0
  6  7  1  0  0  0  0
  7  8  1  0  0  0  0
  8  9  1  0  0  0  0
  9 10  1  0  0  0  0
 10 11  1  0  0  0  0
M  END
> <Index>
21882

> <PropertyFieldDistance>
nan

$$$$
16608498
BBcorina  12272117083D 1   1.00000     0.00000 
CORINA 4.3.0 0026  30.10.2019
 11 11  0  0  0  0  0  0  0  0999 V2000
  -37.0749    2.0476  -45.6894 C   0  0  0  0  0  0  0  0  0  0  0  0
  -35.7373    2.5249  -45.1852 C   0  0  0  0  0  0  0  0  0  0  0  0
  -34.7215    2.2066  -45.7664 O   0  0  0  0  0  0  0  0  0  0  0  0
  -35.6698    3.3054  -44.0886 N   0  0  0  0  0  0  0  0  0  0  0  0
  -36.8917    3.6990  -43.3736 C   0  0  0  0  0  0  0  0  0  0  0  0
  -36.9144    5.2248  -43.2390 C   0  0  0  0  0  0  0  0  0  0  0  0
  -35.6183    5.6943  -42.5743 C   0  0  0  0  0  0  0  0  0  0  0  0
  -34.4241    5.3035  -43.4481 C   0  0  0  0  0  0  0  0  0  0  0  0
  -34.3732    3.7786  -43.5851 C   0  0  0  0  0  0  0  0  0  0  0  0
  -33.1830    5.7816  -42.8246 N   0  0  0  0  0  0  0  0  0  0  0  0
  -31.9994    6.1345  -44.0072 X   0  0  0  0  0  0  0  0  0  0  0  0
  1  2  1  0  0  0  0
  2  3  2  0  0  0  0
  2  4  1  0  0  0  0
  4  5  1  0  0  0  0
  4  9  1  0  0  0  0
  5  6  1  0  0  0  0
  6  7  1  0  0  0  0
  7  8  1  0  0  0  0
  8  9  1  0  0  0  0
  8 10  1  0  0  0  0
 10 11  1  0  0  0  0
M  END
> <Index>
21892

> <PropertyFieldDistance>
nan

$$$$
16466200
BBcorina  12272117083D 1   1.00000     0.00000 
CORINA 4.3.0 0026  30.10.2019
 12 12  0  0  0  0  0  0  0  0999 V2000
  -36.8767    6.8659  -39.6147 C   0  0  0  0  0  0  0  0  0  0  0  0
  -35.8118    7.6161  -40.8772 S   0  0  0  0  0  0  0  0  0  0  0  0
  -36.5326    8.2022  -41.9524 O   0  0  0  0  0  0  0  0  0  0  0  0
  -34.9633    6.5302  -41.4529 N   0  0  0  0  0  0  0  0  0  0  0  0
  -35.3535    5.8832  -42.7079 C   0  0  0  0  0  0  0  0  0  0  0  0
  -36.6585    5.1099  -42.5008 C   0  0  0  0  0  0  0  0  0  0  0  0
  -37.0291    4.3869  -43.7978 C   0  0  0  0  0  0  0  0  0  0  0  0
  -35.9480    3.4664  -44.1723 N   0  0  0  0  0  0  0  0  0  0  0  0
  -34.6958    4.1916  -44.4226 C   0  0  0  0  0  0  0  0  0  0  0  0
  -34.2559    4.9088  -43.1443 C   0  0  0  0  0  0  0  0  0  0  0  0
  -34.7089    8.7778  -40.0259 C   0  0  0  0  0  0  0  0  0  0  0  0
  -36.3898    2.5209  -45.5269 X   0  0  0  0  0  0  0  0  0  0  0  0
  1  2  1  0  0  0  0
  2  3  2  0  0  0  0
  2  4  2  0  0  0  0
  2 11  1  0  0  0  0
  4  5  1  0  0  0  0
  5  6  1  0  0  0  0
  5 10  1  0  0  0  0
  6  7  1  0  0  0  0
  7  8  1  0  0  0  0
  8  9  1  0  0  0  0
  8 12  1  0  0  0  0
  9 10  1  0  0  0  0
M  END
> <Index>
21903

> <PropertyFieldDistance>
nan

$$$$
16608490
BBcorina  12272117083D 1   1.00000     0.00000 
CORINA 4.3.0 0026  30.10.2019
 12 12  0  0  0  0  0  0  0  0999 V2000
  -39.3634    0.6227  -46.3078 C   0  0  0  0  0  0  0  0  0  0  0  0
  -37.8534    0.8281  -46.1715 C   0  0  0  0  0  0  0  0  0  0  0  0
  -37.5933    1.9627  -45.2818 N   0  0  0  0  0  0  0  0  0  0  0  0
  -36.3251    2.3311  -45.0128 C   0  0  0  0  0  0  0  0  0  0  0  0
  -35.3969    1.7220  -45.5085 O   0  0  0  0  0  0  0  0  0  0  0  0
  -36.0858    3.3748  -44.1943 N   0  0  0  0  0  0  0  0  0  0  0  0
  -37.1094    4.1993  -43.5355 C   0  0  0  0  0  0  0  0  0  0  0  0
  -36.3703    5.2494  -42.6793 C   0  0  0  0  0  0  0  0  0  0  0  0
  -34.9750    4.6060  -42.4645 C   0  0  0  0  0  0  0  0  0  0  0  0
  -34.7544    3.8827  -43.8165 C   0  0  0  0  0  0  0  0  0  0  0  0
  -33.9493    5.6343  -42.2439 N   0  0  0  0  0  0  0  0  0  0  0  0
  -33.9601    6.7907  -43.5036 X   0  0  0  0  0  0  0  0  0  0  0  0
  1  2  1  0  0  0  0
  2  3  1  0  0  0  0
  3  4  1  0  0  0  0
  4  5  2  0  0  0  0
  4  6  1  0  0  0  0
  6  7  1  0  0  0  0
  6 10  1  0  0  0  0
  7  8  1  0  0  0  0
  8  9  1  0  0  0  0
  9 10  1  0  0  0  0
  9 11  1  0  0  0  0
 11 12  1  0  0  0  0
M  END
> <Index>
21912

> <PropertyFieldDistance>
nan

$$$$
16608556
BBcorina  12272117083D 1   1.00000     0.00000 
CORINA 4.3.0 0026  30.10.2019
 14 15  0  0  0  0  0  0  0  0999 V2000
  -35.1764    0.1167  -47.4744 O   0  0  0  0  0  0  0  0  0  0  0  0
  -35.8957    0.6309  -46.4453 C   0  0  0  0  0  0  0  0  0  0  0  0
  -35.5821    1.8864  -45.9499 C   0  0  0  0  0  0  0  0  0  0  0  0
  -36.3260    2.3998  -44.8906 C   0  0  0  0  0  0  0  0  0  0  0  0
  -37.3686    1.6264  -44.3770 C   0  0  0  0  0  0  0  0  0  0  0  0
  -37.6215    0.3887  -44.9273 C   0  0  0  0  0  0  0  0  0  0  0  0
  -36.8932   -0.0700  -45.9288 N   0  0  0  0  0  0  0  0  0  0  0  0
  -36.0408    3.6551  -44.3610 N   0  0  0  0  0  0  0  0  0  0  0  0
  -36.9585    3.9834  -43.2611 C   0  0  0  0  0  0  0  0  0  0  0  0
  -36.6643    5.3993  -42.7602 C   0  0  0  0  0  0  0  0  0  0  0  0
  -35.2656    5.4787  -42.3162 N   0  0  0  0  0  0  0  0  0  0  0  0
  -34.3478    5.1501  -43.4164 C   0  0  0  0  0  0  0  0  0  0  0  0
  -34.6420    3.7340  -43.9173 C   0  0  0  0  0  0  0  0  0  0  0  0
  -34.9159    7.0209  -41.6654 X   0  0  0  0  0  0  0  0  0  0  0  0
  1  2  1  0  0  0  0
  2  3  2  0  0  0  0
  2  7  1  0  0  0  0
  3  4  1  0  0  0  0
  4  5  2  0  0  0  0
  4  8  1  0  0  0  0
  5  6  1  0  0  0  0
  6  7  2  0  0  0  0
  8  9  1  0  0  0  0
  8 13  1  0  0  0  0
  9 10  1  0  0  0  0
 10 11  1  0  0  0  0
 11 12  1  0  0  0  0
 11 14  1  0  0  0  0
 12 13  1  0  0  0  0
M  END
> <Index>
21925

> <PropertyFieldDistance>
nan

$$$$
16466206
BBcorina  12272117083D 1   1.00000     0.00000 
CORINA 4.3.0 0026  30.10.2019
 14 15  0  0  0  0  0  0  0  0999 V2000
  -36.0117    3.7534  -44.4456 N   0  0  0  0  0  0  0  0  0  0  0  0
  -36.9938    4.5934  -43.7472 C   0  0  0  0  0  0  0  0  0  0  0  0
  -36.6212    4.6827  -42.2634 C   0  0  0  0  0  0  0  0  0  0  0  0
  -35.2267    5.1383  -42.1585 N   0  0  0  0  0  0  0  0  0  0  0  0
  -34.2032    4.4330  -42.9448 C   0  0  0  0  0  0  0  0  0  0  0  0
  -34.6701    4.3497  -44.3972 C   0  0  0  0  0  0  0  0  0  0  0  0
  -34.8894    6.1994  -41.3506 C   0  0  0  0  0  0  0  0  0  0  0  0
  -35.5930    6.4245  -40.1866 C   0  0  0  0  0  0  0  0  0  0  0  0
  -35.2494    7.5002  -39.3698 C   0  0  0  0  0  0  0  0  0  0  0  0
  -34.2039    8.3199  -39.7396 C   0  0  0  0  0  0  0  0  0  0  0  0
  -33.5157    8.0654  -40.9312 C   0  0  0  0  0  0  0  0  0  0  0  0
  -32.5925    8.7910  -41.2667 O   0  0  0  0  0  0  0  0  0  0  0  0
  -33.8628    7.0211  -41.7064 N   0  0  0  0  0  0  0  0  0  0  0  0
  -36.4940    3.4601  -46.0597 X   0  0  0  0  0  0  0  0  0  0  0  0
  1  2  1  0  0  0  0
  1  6  1  0  0  0  0
  1 14  1  0  0  0  0
  2  3  1  0  0  0  0
  3  4  1  0  0  0  0
  4  5  1  0  0  0  0
  4  7  1  0  0  0  0
  5  6  1  0  0  0  0
  7  8  2  0  0  0  0
  7 13  1  0  0  0  0
  8  9  1  0  0  0  0
  9 10  2  0  0  0  0
 10 11  1  0  0  0  0
 11 12  2  0  0  0  0
 11 13  1  0  0  0  0
M  END
> <Index>
21929

> <PropertyFieldDistance>
nan

$$$$
16466208
BBcorina  12272117083D 1   1.00000     0.00000 
CORINA 4.3.0 0026  30.10.2019
 13 14  0  0  0  0  0  0  0  0999 V2000
  -36.0066    3.5610  -44.3091 N   0  0  0  0  0  0  0  0  0  0  0  0
  -36.9647    4.5726  -43.8348 C   0  0  0  0  0  0  0  0  0  0  0  0
  -36.6510    4.8996  -42.3737 C   0  0  0  0  0  0  0  0  0  0  0  0
  -35.2303    5.2015  -42.2248 N   0  0  0  0  0  0  0  0  0  0  0  0
  -34.7895    5.9217  -41.0275 C   0  0  0  0  0  0  0  0  0  0  0  0
  -33.7741    5.0741  -40.2290 C   0  0  0  0  0  0  0  0  0  0  0  0
  -32.4870    5.9284  -40.2325 C   0  0  0  0  0  0  0  0  0  0  0  0
  -32.9442    7.2835  -40.4339 O   0  0  0  0  0  0  0  0  0  0  0  0
  -33.9958    7.1879  -41.4192 C   0  0  0  0  0  0  0  0  0  0  0  0
  -34.3122    4.8496  -43.1289 C   0  0  0  0  0  0  0  0  0  0  0  0
  -33.1488    5.1120  -42.9093 O   0  0  0  0  0  0  0  0  0  0  0  0
  -34.6619    4.1440  -44.4085 C   0  0  0  0  0  0  0  0  0  0  0  0
  -36.5016    2.9029  -45.8077 X   0  0  0  0  0  0  0  0  0  0  0  0
  1  2  1  0  0  0  0
  1 12  1  0  0  0  0
  1 13  1  0  0  0  0
  2  3  1  0  0  0  0
  3  4  1  0  0  0  0
  4  5  1  0  0  0  0
  4 10  1  0  0  0  0
  5  6  1  0  0  0  0
  5  9  1  0  0  0  0
  6  7  1  0  0  0  0
  7  8  1  0  0  0  0
  8  9  1  0  0  0  0
 10 11  2  0  0  0  0
 10 12  1  0  0  0  0
M  END
> <Index>
21931

> <PropertyFieldDistance>
nan

$$$$
15545488
BBcorina  12272117083D 1   1.00000     0.00000 
CORINA 4.3.0 0026  30.10.2019
 12 13  0  0  0  0  0  0  0  0999 V2000
  -36.8862    2.0083  -44.2011 C   0  0  0  0  0  0  0  0  0  0  0  0
  -36.6006    3.3003  -44.8301 N   0  0  0  0  0  0  0  0  0  0  0  0
  -36.5442    3.5566  -46.2095 N   0  0  0  0  0  0  0  0  0  0  0  0
  -36.2619    4.8265  -46.3802 C   0  0  0  0  0  0  0  0  0  0  0  0
  -36.1322    5.4075  -45.1217 C   0  0  0  0  0  0  0  0  0  0  0  0
  -35.8091    6.8564  -44.7994 C   0  0  0  0  0  0  0  0  0  0  0  0
  -34.4533    6.8587  -44.0736 C   0  0  0  0  0  0  0  0  0  0  0  0
  -34.6206    6.4598  -42.6274 C   0  0  0  0  0  0  0  0  0  0  0  0
  -34.9057    5.0657  -42.3604 N   0  0  0  0  0  0  0  0  0  0  0  0
  -36.2932    4.6914  -42.6926 C   0  0  0  0  0  0  0  0  0  0  0  0
  -36.3447    4.4538  -44.1918 C   0  0  0  0  0  0  0  0  0  0  0  0
  -33.7882    4.0482  -43.1605 X   0  0  0  0  0  0  0  0  0  0  0  0
  1  2  1  0  0  0  0
  2  3  1  0  0  0  0
  2 11  1  0  0  0  0
  3  4  2  0  0  0  0
  4  5  1  0  0  0  0
  5  6  1  0  0  0  0
  5 11  2  0  0  0  0
  6  7  1  0  0  0  0
  7  8  1  0  0  0  0
  8  9  1  0  0  0  0
  9 10  1  0  0  0  0
  9 12  1  0  0  0  0
 10 11  1  0  0  0  0
M  END
> <Index>
21936

> <PropertyFieldDistance>
nan

$$$$
15559590
BBcorina  12272117083D 1   1.00000     0.00000 
CORINA 4.3.0 0026  30.10.2019
 12 12  0  0  0  0  0  0  0  0999 V2000
  -32.2432    6.0441  -41.4404 F   0  0  0  0  0  0  0  0  0  0  0  0
  -33.4479    5.4986  -40.9838 C   0  0  0  0  0  0  0  0  0  0  0  0
  -33.9620    6.2976  -39.9571 F   0  0  0  0  0  0  0  0  0  0  0  0
  -33.2205    4.2059  -40.4996 F   0  0  0  0  0  0  0  0  0  0  0  0
  -34.4516    5.4419  -42.1372 C   0  0  0  0  0  0  0  0  0  0  0  0
  -35.7947    4.8893  -41.6099 C   0  0  0  0  0  0  0  0  0  0  0  0
  -36.8797    5.2353  -42.5932 C   0  0  0  0  0  0  0  0  0  0  0  0
  -37.1126    4.1343  -43.6433 C   0  0  0  0  0  0  0  0  0  0  0  0
  -35.8573    3.5534  -44.1682 N   0  0  0  0  0  0  0  0  0  0  0  0
  -34.8313    4.5335  -44.4309 C   0  0  0  0  0  0  0  0  0  0  0  0
  -33.9064    4.6071  -43.2021 C   0  0  0  0  0  0  0  0  0  0  0  0
  -36.1574    2.5944  -45.5518 X   0  0  0  0  0  0  0  0  0  0  0  0
  1  2  1  0  0  0  0
  2  3  1  0  0  0  0
  2  4  1  0  0  0  0
  2  5  1  0  0  0  0
  5  6  1  0  0  0  0
  5 11  1  0  0  0  0
  6  7  1  0  0  0  0
  7  8  1  0  0  0  0
  8  9  1  0  0  0  0
  9 10  1  0  0  0  0
  9 12  1  0  0  0  0
 10 11  1  0  0  0  0
M  END
> <Index>
21940

> <PropertyFieldDistance>
nan

$$$$
15705850
BBcorina  12272117083D 1   1.00000     0.00000 
CORINA 4.3.0 0026  30.10.2019
 13 14  0  0  0  0  0  0  0  0999 V2000
  -36.0191    3.9414  -44.5845 N   0  0  0  0  0  0  0  0  0  0  0  0
  -36.9723    4.0087  -43.4695 C   0  0  0  0  0  0  0  0  0  0  0  0
  -36.6793    5.2476  -42.6202 C   0  0  0  0  0  0  0  0  0  0  0  0
  -35.2462    5.1676  -42.0870 C   0  0  0  0  0  0  0  0  0  0  0  0
  -34.2770    5.0496  -43.2665 C   0  0  0  0  0  0  0  0  0  0  0  0
  -34.6396    3.8164  -44.0970 C   0  0  0  0  0  0  0  0  0  0  0  0
  -34.9316    6.4133  -41.2993 C   0  0  0  0  0  0  0  0  0  0  0  0
  -34.4851    7.5431  -41.9579 C   0  0  0  0  0  0  0  0  0  0  0  0
  -34.1985    8.6842  -41.2239 C   0  0  0  0  0  0  0  0  0  0  0  0
  -34.3725    8.6453  -39.8491 C   0  0  0  0  0  0  0  0  0  0  0  0
  -34.8229    7.4789  -39.2599 C   0  0  0  0  0  0  0  0  0  0  0  0
  -35.0907    6.4142  -39.9901 N   0  0  0  0  0  0  0  0  0  0  0  0
  -36.4111    2.6621  -45.6494 X   0  0  0  0  0  0  0  0  0  0  0  0
  1  2  1  0  0  0  0
  1  6  1  0  0  0  0
  1 13  1  0  0  0  0
  2  3  1  0  0  0  0
  3  4  1  0  0  0  0
  4  5  1  0  0  0  0
  4  7  1  0  0  0  0
  5  6  1  0  0  0  0
  7  8  2  0  0  0  0
  7 12  1  0  0  0  0
  8  9  1  0  0  0  0
  9 10  2  0  0  0  0
 10 11  1  0  0  0  0
 11 12  2  0  0  0  0
M  END
> <Index>
21978

> <PropertyFieldDistance>
nan

$$$$
16466284
BBcorina  12272117083D 1   1.00000     0.00000 
CORINA 4.3.0 0026  30.10.2019
 11 12  0  0  0  0  0  0  0  0999 V2000
  -37.7981    4.7183  -40.9334 N   0  0  0  0  0  0  0  0  0  0  0  0
  -36.4146    4.2882  -41.2381 C   0  0  0  0  0  0  0  0  0  0  0  0
  -36.5602    5.1016  -42.5305 C   0  0  0  0  0  0  0  0  0  0  0  0
  -37.6431    5.9074  -41.8019 C   0  0  0  0  0  0  0  0  0  0  0  0
  -37.0847    4.2919  -43.7122 C   0  0  0  0  0  0  0  0  0  0  0  0
  -35.9687    3.6332  -44.3901 N   0  0  0  0  0  0  0  0  0  0  0  0
  -34.6948    3.9872  -44.1906 C   0  0  0  0  0  0  0  0  0  0  0  0
  -33.8329    3.4259  -44.8334 O   0  0  0  0  0  0  0  0  0  0  0  0
  -34.2790    5.0497  -43.2143 C   0  0  0  0  0  0  0  0  0  0  0  0
  -35.4012    5.8644  -42.8634 O   0  0  0  0  0  0  0  0  0  0  0  0
  -37.9509    5.1738  -39.2923 X   0  0  0  0  0  0  0  0  0  0  0  0
  1  2  1  0  0  0  0
  1  4  1  0  0  0  0
  1 11  1  0  0  0  0
  2  3  1  0  0  0  0
  3  4  1  0  0  0  0
  3  5  1  0  0  0  0
  3 10  1  0  0  0  0
  5  6  1  0  0  0  0
  6  7  1  0  0  0  0
  7  8  2  0  0  0  0
  7  9  1  0  0  0  0
  9 10  1  0  0  0  0
M  END
> <Index>
21996

> <PropertyFieldDistance>
nan

$$$$
15732836
BBcorina  12272117083D 1   1.00000     0.00000 
CORINA 4.3.0 0026  30.10.2019
 13 13  0  0  0  0  0  0  0  0999 V2000
  -34.2774    8.9562  -39.9620 C   0  0  0  0  0  0  0  0  0  0  0  0
  -35.6266    8.2457  -39.8362 C   0  0  0  0  0  0  0  0  0  0  0  0
  -36.7233    9.2780  -39.5668 C   0  0  0  0  0  0  0  0  0  0  0  0
  -35.5710    7.2468  -38.6788 C   0  0  0  0  0  0  0  0  0  0  0  0
  -35.9144    7.5513  -41.0515 O   0  0  0  0  0  0  0  0  0  0  0  0
  -34.9460    6.5589  -41.3971 C   0  0  0  0  0  0  0  0  0  0  0  0
  -35.3535    5.8833  -42.7079 C   0  0  0  0  0  0  0  0  0  0  0  0
  -36.6585    5.1099  -42.5008 C   0  0  0  0  0  0  0  0  0  0  0  0
  -37.0291    4.3869  -43.7977 C   0  0  0  0  0  0  0  0  0  0  0  0
  -35.9480    3.4664  -44.1723 N   0  0  0  0  0  0  0  0  0  0  0  0
  -34.6958    4.1916  -44.4226 C   0  0  0  0  0  0  0  0  0  0  0  0
  -34.2559    4.9088  -43.1442 C   0  0  0  0  0  0  0  0  0  0  0  0
  -36.3899    2.5211  -45.5270 X   0  0  0  0  0  0  0  0  0  0  0  0
  1  2  1  0  0  0  0
  2  3  1  0  0  0  0
  2  4  1  0  0  0  0
  2  5  1  0  0  0  0
  5  6  1  0  0  0  0
  6  7  1  0  0  0  0
  7  8  1  0  0  0  0
  7 12  1  0  0  0  0
  8  9  1  0  0  0  0
  9 10  1  0  0  0  0
 10 11  1  0  0  0  0
 10 13  1  0  0  0  0
 11 12  1  0  0  0  0
M  END
> <Index>
22008

> <PropertyFieldDistance>
nan

$$$$
16663256
BBcorina  12272117083D 1   1.00000     0.00000 
CORINA 4.3.0 0026  30.10.2019
 12 13  0  0  0  0  0  0  0  0999 V2000
  -35.4388    6.9197  -43.8892 C   0  0  0  0  0  0  0  0  0  0  0  0
  -35.3035    5.9150  -42.7431 C   0  0  0  0  0  0  0  0  0  0  0  0
  -36.6346    5.1661  -42.5341 C   0  0  0  0  0  0  0  0  0  0  0  0
  -37.0134    4.3430  -43.7611 C   0  0  0  0  0  0  0  0  0  0  0  0
  -35.9174    3.4481  -44.1907 N   0  0  0  0  0  0  0  0  0  0  0  0
  -34.7466    4.2540  -44.4544 C   0  0  0  0  0  0  0  0  0  0  0  0
  -34.2754    4.8525  -43.0974 C   0  0  0  0  0  0  0  0  0  0  0  0
  -32.8907    5.3472  -43.5183 C   0  0  0  0  0  0  0  0  0  0  0  0
  -32.4414    4.3297  -44.4974 N   0  0  0  0  0  0  0  0  0  0  0  0
  -33.5037    3.6381  -44.9956 C   0  0  0  0  0  0  0  0  0  0  0  0
  -33.4475    2.6865  -45.7455 O   0  0  0  0  0  0  0  0  0  0  0  0
  -36.3668    2.5493  -45.5743 X   0  0  0  0  0  0  0  0  0  0  0  0
  1  2  1  0  0  0  0
  2  3  1  0  0  0  0
  2  7  1  0  0  0  0
  3  4  1  0  0  0  0
  4  5  1  0  0  0  0
  5  6  1  0  0  0  0
  5 12  1  0  0  0  0
  6  7  1  0  0  0  0
  6 10  1  0  0  0  0
  7  8  1  0  0  0  0
  8  9  1  0  0  0  0
  9 10  1  0  0  0  0
 10 11  2  0  0  0  0
M  END
> <Index>
22012

> <PropertyFieldDistance>
nan

$$$$
15757072
BBcorina  12272117083D 1   1.00000     0.00000 
CORINA 4.3.0 0026  30.10.2019
 14 16  0  0  0  0  0  0  0  0999 V2000
  -36.9934   -0.6658  -46.5338 N   0  0  0  0  0  0  0  0  0  0  0  0
  -36.7051    0.5893  -45.8270 C   0  0  0  0  0  0  0  0  0  0  0  0
  -35.3415    1.2610  -45.5559 C   0  0  0  0  0  0  0  0  0  0  0  0
  -36.3042    2.2551  -44.8708 C   0  0  0  0  0  0  0  0  0  0  0  0
  -37.0001    0.9799  -44.3335 C   0  0  0  0  0  0  0  0  0  0  0  0
  -35.9951    3.5039  -44.1698 N   0  0  0  0  0  0  0  0  0  0  0  0
  -37.1043    4.2636  -43.6068 C   0  0  0  0  0  0  0  0  0  0  0  0
  -36.5994    5.2384  -42.5422 C   0  0  0  0  0  0  0  0  0  0  0  0
  -35.4371    6.0482  -43.1294 C   0  0  0  0  0  0  0  0  0  0  0  0
  -34.2550    5.1027  -43.3570 C   0  0  0  0  0  0  0  0  0  0  0  0
  -34.7167    3.8740  -44.0867 C   0  0  0  0  0  0  0  0  0  0  0  0
  -33.8822    3.1814  -44.6295 O   0  0  0  0  0  0  0  0  0  0  0  0
  -37.1883    2.0309  -46.1227 C   0  0  0  0  0  0  0  0  0  0  0  0
  -36.3431   -0.6419  -48.1151 X   0  0  0  0  0  0  0  0  0  0  0  0
  1  2  1  0  0  0  0
  1 14  1  0  0  0  0
  2  3  1  0  0  0  0
  2  5  1  0  0  0  0
  2 13  1  0  0  0  0
  3  4  1  0  0  0  0
  4  5  1  0  0  0  0
  4  6  1  0  0  0  0
  4 13  1  0  0  0  0
  6  7  1  0  0  0  0
  6 11  1  0  0  0  0
  7  8  1  0  0  0  0
  8  9  1  0  0  0  0
  9 10  1  0  0  0  0
 10 11  1  0  0  0  0
 11 12  2  0  0  0  0
M  END
> <Index>
22014

> <PropertyFieldDistance>
nan

$$$$
15778026
BBcorina  12272117083D 1   1.00000     0.00000 
CORINA 4.3.0 0026  30.10.2019
 13 14  0  0  0  0  0  0  0  0999 V2000
  -36.3198    0.7780  -46.8320 C   0  0  0  0  0  0  0  0  0  0  0  0
  -35.6607    1.5519  -45.6885 C   0  0  0  0  0  0  0  0  0  0  0  0
  -36.6304    2.6136  -45.1656 C   0  0  0  0  0  0  0  0  0  0  0  0
  -37.2396    3.4976  -46.2703 C   0  0  0  0  0  0  0  0  0  0  0  0
  -38.4862    3.3288  -45.5658 O   0  0  0  0  0  0  0  0  0  0  0  0
  -38.0639    2.0934  -44.9480 C   0  0  0  0  0  0  0  0  0  0  0  0
  -36.0953    3.3716  -44.0269 N   0  0  0  0  0  0  0  0  0  0  0  0
  -37.0818    4.3401  -43.5285 C   0  0  0  0  0  0  0  0  0  0  0  0
  -36.5172    5.0513  -42.2965 C   0  0  0  0  0  0  0  0  0  0  0  0
  -35.2597    5.7221  -42.6547 N   0  0  0  0  0  0  0  0  0  0  0  0
  -34.2731    4.7536  -43.1531 C   0  0  0  0  0  0  0  0  0  0  0  0
  -34.8377    4.0424  -44.3851 C   0  0  0  0  0  0  0  0  0  0  0  0
  -34.6366    6.6044  -41.3291 X   0  0  0  0  0  0  0  0  0  0  0  0
  1  2  1  0  0  0  0
  2  3  1  0  0  0  0
  3  4  1  0  0  0  0
  3  6  1  0  0  0  0
  3  7  1  0  0  0  0
  4  5  1  0  0  0  0
  5  6  1  0  0  0  0
  7  8  1  0  0  0  0
  7 12  1  0  0  0  0
  8  9  1  0  0  0  0
  9 10  1  0  0  0  0
 10 11  1  0  0  0  0
 10 13  1  0  0  0  0
 11 12  1  0  0  0  0
M  END
> <Index>
22028

> <PropertyFieldDistance>
nan

$$$$
16656128
BBcorina  12272117083D 1   1.00000     0.00000 
CORINA 4.3.0 0026  30.10.2019
 13 13  0  0  0  0  0  0  0  0999 V2000
  -31.9448    4.8018  -43.8683 C   0  0  0  0  0  0  0  0  0  0  0  0
  -32.9040    4.9154  -42.7615 N   0  0  0  0  0  0  0  0  0  0  0  0
  -32.5567    6.0354  -41.8767 C   0  0  0  0  0  0  0  0  0  0  0  0
  -34.2769    5.0496  -43.2665 C   0  0  0  0  0  0  0  0  0  0  0  0
  -35.2462    5.1676  -42.0870 C   0  0  0  0  0  0  0  0  0  0  0  0
  -36.6793    5.2476  -42.6202 C   0  0  0  0  0  0  0  0  0  0  0  0
  -36.9724    4.0087  -43.4694 C   0  0  0  0  0  0  0  0  0  0  0  0
  -36.0191    3.9414  -44.5845 N   0  0  0  0  0  0  0  0  0  0  0  0
  -34.6396    3.8164  -44.0970 C   0  0  0  0  0  0  0  0  0  0  0  0
  -34.3784    6.2829  -44.1265 C   0  0  0  0  0  0  0  0  0  0  0  0
  -34.8986    7.2869  -43.6878 O   0  0  0  0  0  0  0  0  0  0  0  0
  -33.8911    6.2703  -45.3830 N   0  0  0  0  0  0  0  0  0  0  0  0
  -36.4110    2.6621  -45.6493 X   0  0  0  0  0  0  0  0  0  0  0  0
  1  2  1  0  0  0  0
  2  3  1  0  0  0  0
  2  4  1  0  0  0  0
  4  5  1  0  0  0  0
  4  9  1  0  0  0  0
  4 10  1  0  0  0  0
  5  6  1  0  0  0  0
  6  7  1  0  0  0  0
  7  8  1  0  0  0  0
  8  9  1  0  0  0  0
  8 13  1  0  0  0  0
 10 11  2  0  0  0  0
 10 12  1  0  0  0  0
M  END
> <Index>
22052

> <PropertyFieldDistance>
nan

$$$$
16660888
BBcorina  12272117083D 1   1.00000     0.00000 
CORINA 4.3.0 0026  30.10.2019
 11 11  0  0  0  0  0  0  0  0999 V2000
  -36.8349    2.7538  -42.6049 C   0  0  0  0  0  0  0  0  0  0  0  0
  -36.9724    4.0086  -43.4695 C   0  0  0  0  0  0  0  0  0  0  0  0
  -38.3968    4.0941  -44.0212 C   0  0  0  0  0  0  0  0  0  0  0  0
  -36.6793    5.2476  -42.6202 C   0  0  0  0  0  0  0  0  0  0  0  0
  -35.2462    5.1676  -42.0870 C   0  0  0  0  0  0  0  0  0  0  0  0
  -34.9273    6.4316  -41.2861 C   0  0  0  0  0  0  0  0  0  0  0  0
  -33.6336    6.3056  -40.6923 O   0  0  0  0  0  0  0  0  0  0  0  0
  -34.2769    5.0495  -43.2665 C   0  0  0  0  0  0  0  0  0  0  0  0
  -34.6397    3.8164  -44.0971 C   0  0  0  0  0  0  0  0  0  0  0  0
  -36.0190    3.9415  -44.5844 N   0  0  0  0  0  0  0  0  0  0  0  0
  -36.4107    2.6623  -45.6494 X   0  0  0  0  0  0  0  0  0  0  0  0
  1  2  1  0  0  0  0
  2  3  1  0  0  0  0
  2  4  1  0  0  0  0
  2 10  1  0  0  0  0
  4  5  1  0  0  0  0
  5  6  1  0  0  0  0
  5  8  1  0  0  0  0
  6  7  1  0  0  0  0
  8  9  1  0  0  0  0
  9 10  1  0  0  0  0
 10 11  1  0  0  0  0
M  END
> <Index>
22053

> <PropertyFieldDistance>
nan

$$$$
16663958
BBcorina  12272117083D 1   1.00000     0.00000 
CORINA 4.3.0 0026  30.10.2019
 10 10  0  0  0  0  0  0  0  0999 V2000
  -37.1367    4.6088  -42.3394 F   0  0  0  0  0  0  0  0  0  0  0  0
  -36.0425    4.5086  -43.2054 C   0  0  0  0  0  0  0  0  0  0  0  0
  -36.5519    4.1225  -44.6071 C   0  0  0  0  0  0  0  0  0  0  0  0
  -35.4573    3.5881  -45.4906 C   0  0  0  0  0  0  0  0  0  0  0  0
  -35.4486    2.0494  -45.3835 C   0  0  0  0  0  0  0  0  0  0  0  0
  -34.7715    1.5806  -44.1835 C   0  0  0  0  0  0  0  0  0  0  0  0
  -35.4646    2.0637  -42.8930 C   0  0  0  0  0  0  0  0  0  0  0  0
  -35.0451    3.4853  -42.6294 C   0  0  0  0  0  0  0  0  0  0  0  0
  -34.9413    3.6879  -41.1781 N   0  0  0  0  0  0  0  0  0  0  0  0
  -36.4334    3.3680  -40.4064 X   0  0  0  0  0  0  0  0  0  0  0  0
  1  2  1  0  0  0  0
  2  3  1  0  0  0  0
  2  8  1  0  0  0  0
  3  4  1  0  0  0  0
  4  5  1  0  0  0  0
  5  6  1  0  0  0  0
  6  7  1  0  0  0  0
  7  8  1  0  0  0  0
  8  9  1  0  0  0  0
  9 10  1  0  0  0  0
M  END
> <Index>
22057

> <PropertyFieldDistance>
nan

$$$$
16924846
BBcorina  12272117083D 1   1.00000     0.00000 
CORINA 4.3.0 0026  30.10.2019
 12 12  0  0  0  0  0  0  0  0999 V2000
  -35.0652   -0.0276  -47.4649 C   0  0  0  0  0  0  0  0  0  0  0  0
  -36.1712    0.8228  -46.8369 C   0  0  0  0  0  0  0  0  0  0  0  0
  -35.5912    1.6418  -45.6819 C   0  0  0  0  0  0  0  0  0  0  0  0
  -35.1566    0.7606  -44.6443 O   0  0  0  0  0  0  0  0  0  0  0  0
  -36.6656    2.5835  -45.1344 C   0  0  0  0  0  0  0  0  0  0  0  0
  -36.1150    3.3546  -44.0119 N   0  0  0  0  0  0  0  0  0  0  0  0
  -37.0905    4.3370  -43.5191 C   0  0  0  0  0  0  0  0  0  0  0  0
  -36.5101    5.0625  -42.3029 C   0  0  0  0  0  0  0  0  0  0  0  0
  -35.2514    5.7192  -42.6823 N   0  0  0  0  0  0  0  0  0  0  0  0
  -34.2758    4.7368  -43.1750 C   0  0  0  0  0  0  0  0  0  0  0  0
  -34.8562    4.0113  -44.3913 C   0  0  0  0  0  0  0  0  0  0  0  0
  -34.6104    6.6168  -41.3755 X   0  0  0  0  0  0  0  0  0  0  0  0
  1  2  1  0  0  0  0
  2  3  1  0  0  0  0
  3  4  1  0  0  0  0
  3  5  1  0  0  0  0
  5  6  1  0  0  0  0
  6  7  1  0  0  0  0
  6 11  1  0  0  0  0
  7  8  1  0  0  0  0
  8  9  1  0  0  0  0
  9 10  1  0  0  0  0
  9 12  1  0  0  0  0
 10 11  1  0  0  0  0
M  END
> <Index>
22064

> <PropertyFieldDistance>
nan

$$$$
13826332
BBcorina  12272117083D 1   1.00000     0.00000 
CORINA 4.3.0 0026  30.10.2019
 13 13  0  0  0  0  0  0  0  0999 V2000
  -35.6040   -1.0321  -48.2802 C   0  0  0  0  0  0  0  0  0  0  0  0
  -35.1385   -0.0792  -47.3225 O   0  0  0  0  0  0  0  0  0  0  0  0
  -36.1826    0.6453  -46.6687 C   0  0  0  0  0  0  0  0  0  0  0  0
  -35.5716    1.6312  -45.6709 C   0  0  0  0  0  0  0  0  0  0  0  0
  -36.6796    2.4930  -45.0620 C   0  0  0  0  0  0  0  0  0  0  0  0
  -36.1108    3.3563  -44.0183 N   0  0  0  0  0  0  0  0  0  0  0  0
  -37.0880    4.3615  -43.5758 C   0  0  0  0  0  0  0  0  0  0  0  0
  -36.4762    5.1987  -42.4494 C   0  0  0  0  0  0  0  0  0  0  0  0
  -35.2595    5.7925  -42.9103 O   0  0  0  0  0  0  0  0  0  0  0  0
  -34.2850    4.8420  -43.3486 C   0  0  0  0  0  0  0  0  0  0  0  0
  -34.8745    4.0012  -44.4841 C   0  0  0  0  0  0  0  0  0  0  0  0
  -34.8875    0.8878  -44.6044 N   0  0  0  0  0  0  0  0  0  0  0  0
  -35.9787   -0.1309  -43.7704 X   0  0  0  0  0  0  0  0  0  0  0  0
  1  2  1  0  0  0  0
  2  3  1  0  0  0  0
  3  4  1  0  0  0  0
  4  5  1  0  0  0  0
  4 12  1  0  0  0  0
  5  6  1  0  0  0  0
  6  7  1  0  0  0  0
  6 11  1  0  0  0  0
  7  8  1  0  0  0  0
  8  9  1  0  0  0  0
  9 10  1  0  0  0  0
 10 11  1  0  0  0  0
 12 13  1  0  0  0  0
M  END
> <Index>
22069

> <PropertyFieldDistance>
nan

$$$$
15730308
BBcorina  12272117083D 1   1.00000     0.00000 
CORINA 4.3.0 0026  30.10.2019
 11 11  0  0  0  0  0  0  0  0999 V2000
  -35.7135    8.5872  -39.7376 F   0  0  0  0  0  0  0  0  0  0  0  0
  -34.8966    7.5615  -39.2498 C   0  0  0  0  0  0  0  0  0  0  0  0
  -35.2557    6.2480  -39.9474 C   0  0  0  0  0  0  0  0  0  0  0  0
  -34.9470    6.3478  -41.3390 O   0  0  0  0  0  0  0  0  0  0  0  0
  -35.2462    5.1675  -42.0868 C   0  0  0  0  0  0  0  0  0  0  0  0
  -36.6793    5.2476  -42.6203 C   0  0  0  0  0  0  0  0  0  0  0  0
  -36.9723    4.0086  -43.4694 C   0  0  0  0  0  0  0  0  0  0  0  0
  -36.0191    3.9414  -44.5845 N   0  0  0  0  0  0  0  0  0  0  0  0
  -34.6396    3.8164  -44.0971 C   0  0  0  0  0  0  0  0  0  0  0  0
  -34.2769    5.0496  -43.2664 C   0  0  0  0  0  0  0  0  0  0  0  0
  -36.4111    2.6624  -45.6495 X   0  0  0  0  0  0  0  0  0  0  0  0
  1  2  1  0  0  0  0
  2  3  1  0  0  0  0
  3  4  1  0  0  0  0
  4  5  1  0  0  0  0
  5  6  1  0  0  0  0
  5 10  1  0  0  0  0
  6  7  1  0  0  0  0
  7  8  1  0  0  0  0
  8  9  1  0  0  0  0
  8 11  1  0  0  0  0
  9 10  1  0  0  0  0
M  END
> <Index>
22110

> <PropertyFieldDistance>
nan

$$$$
13473968
BBcorina  12272117083D 1   1.00000     0.00000 
CORINA 4.3.0 0026  30.10.2019
 11 11  0  0  0  0  0  0  0  0999 V2000
  -36.5830    0.8557  -46.8716 C   0  0  0  0  0  0  0  0  0  0  0  0
  -36.9541    1.8485  -45.7682 C   0  0  0  0  0  0  0  0  0  0  0  0
  -35.6980    2.4352  -45.1772 C   0  0  0  0  0  0  0  0  0  0  0  0
  -34.6129    2.0928  -45.5972 O   0  0  0  0  0  0  0  0  0  0  0  0
  -35.7805    3.3402  -44.1820 N   0  0  0  0  0  0  0  0  0  0  0  0
  -37.0283    3.8438  -43.5798 C   0  0  0  0  0  0  0  0  0  0  0  0
  -36.6541    5.2262  -42.9895 C   0  0  0  0  0  0  0  0  0  0  0  0
  -35.2166    4.9635  -42.4681 C   0  0  0  0  0  0  0  0  0  0  0  0
  -34.6409    3.9894  -43.5176 C   0  0  0  0  0  0  0  0  0  0  0  0
  -34.4399    6.2099  -42.4346 N   0  0  0  0  0  0  0  0  0  0  0  0
  -34.4697    6.9914  -43.9553 X   0  0  0  0  0  0  0  0  0  0  0  0
  1  2  1  0  0  0  0
  2  3  1  0  0  0  0
  3  4  2  0  0  0  0
  3  5  1  0  0  0  0
  5  6  1  0  0  0  0
  5  9  1  0  0  0  0
  6  7  1  0  0  0  0
  7  8  1  0  0  0  0
  8  9  1  0  0  0  0
  8 10  1  0  0  0  0
 10 11  1  0  0  0  0
M  END
> <Index>
22114

> <PropertyFieldDistance>
nan

$$$$
15733096
BBcorina  12272117083D 1   1.00000     0.00000 
CORINA 4.3.0 0026  30.10.2019
 11 12  0  0  0  0  0  0  0  0999 V2000
  -36.0188    3.9437  -44.5835 N   0  0  0  0  0  0  0  0  0  0  0  0
  -36.9729    4.0072  -43.4690 C   0  0  0  0  0  0  0  0  0  0  0  0
  -36.6834    5.2476  -42.6193 C   0  0  0  0  0  0  0  0  0  0  0  0
  -35.2486    5.1798  -42.1000 C   0  0  0  0  0  0  0  0  0  0  0  0
  -34.2731    5.0495  -43.2683 C   0  0  0  0  0  0  0  0  0  0  0  0
  -34.6391    3.8155  -44.0976 C   0  0  0  0  0  0  0  0  0  0  0  0
  -35.1012    4.0607  -41.2110 O   0  0  0  0  0  0  0  0  0  0  0  0
  -34.1431    4.5228  -40.2387 C   0  0  0  0  0  0  0  0  0  0  0  0
  -34.2867    6.0275  -40.2036 C   0  0  0  0  0  0  0  0  0  0  0  0
  -34.9281    6.4077  -41.2852 C   0  0  0  0  0  0  0  0  0  0  0  0
  -36.4119    2.6704  -45.6550 X   0  0  0  0  0  0  0  0  0  0  0  0
  1  2  1  0  0  0  0
  1  6  1  0  0  0  0
  1 11  1  0  0  0  0
  2  3  1  0  0  0  0
  3  4  1  0  0  0  0
  4  5  1  0  0  0  0
  4  7  1  0  0  0  0
  4 10  1  0  0  0  0
  5  6  1  0  0  0  0
  7  8  1  0  0  0  0
  8  9  1  0  0  0  0
  9 10  2  0  0  0  0
M  END
> <Index>
22121

> <PropertyFieldDistance>
nan

$$$$
15716804
BBcorina  12272117083D 1   1.00000     0.00000 
CORINA 4.3.0 0026  30.10.2019
 15 18  0  0  0  0  0  0  0  0999 V2000
  -36.0008    3.7170  -44.2231 N   0  0  0  0  0  0  0  0  0  0  0  0
  -37.1869    4.5279  -43.8695 C   0  0  0  0  0  0  0  0  0  0  0  0
  -36.4760    4.7969  -42.5309 C   0  0  0  0  0  0  0  0  0  0  0  0
  -35.1656    4.4910  -43.2784 C   0  0  0  0  0  0  0  0  0  0  0  0
  -36.5890    6.2463  -42.0540 C   0  0  0  0  0  0  0  0  0  0  0  0
  -38.0638    6.6081  -41.8668 C   0  0  0  0  0  0  0  0  0  0  0  0
  -38.6887    5.6782  -40.8248 C   0  0  0  0  0  0  0  0  0  0  0  0
  -37.9518    5.8359  -39.4932 C   0  0  0  0  0  0  0  0  0  0  0  0
  -38.0648    7.2853  -39.0163 C   0  0  0  0  0  0  0  0  0  0  0  0
  -37.4399    8.2152  -40.0583 C   0  0  0  0  0  0  0  0  0  0  0  0
  -38.1768    8.0575  -41.3899 C   0  0  0  0  0  0  0  0  0  0  0  0
  -35.9651    7.8535  -40.2456 C   0  0  0  0  0  0  0  0  0  0  0  0
  -35.8522    6.4040  -40.7225 C   0  0  0  0  0  0  0  0  0  0  0  0
  -36.4770    5.4741  -39.6806 C   0  0  0  0  0  0  0  0  0  0  0  0
  -35.5228    4.0031  -45.8399 X   0  0  0  0  0  0  0  0  0  0  0  0
  1  2  1  0  0  0  0
  1  4  1  0  0  0  0
  1 15  1  0  0  0  0
  2  3  1  0  0  0  0
  3  4  1  0  0  0  0
  3  5  1  0  0  0  0
  5  6  1  0  0  0  0
  5 13  1  0  0  0  0
  6  7  1  0  0  0  0
  6 11  1  0  0  0  0
  7  8  1  0  0  0  0
  8  9  1  0  0  0  0
  8 14  1  0  0  0  0
  9 10  1  0  0  0  0
 10 11  1  0  0  0  0
 10 12  1  0  0  0  0
 12 13  1  0  0  0  0
 13 14  1  0  0  0  0
M  END
> <Index>
22125

> <PropertyFieldDistance>
nan

$$$$
15730516
BBcorina  12272117083D 1   1.00000     0.00000 
CORINA 4.3.0 0026  30.10.2019
 11 11  0  0  0  0  0  0  0  0999 V2000
  -36.5233    9.2685  -39.3779 F   0  0  0  0  0  0  0  0  0  0  0  0
  -35.5752    8.2970  -39.7163 C   0  0  0  0  0  0  0  0  0  0  0  0
  -35.9828    7.6214  -41.0271 C   0  0  0  0  0  0  0  0  0  0  0  0
  -34.9460    6.5589  -41.3971 C   0  0  0  0  0  0  0  0  0  0  0  0
  -35.3535    5.8833  -42.7079 C   0  0  0  0  0  0  0  0  0  0  0  0
  -36.6585    5.1099  -42.5008 C   0  0  0  0  0  0  0  0  0  0  0  0
  -37.0291    4.3869  -43.7977 C   0  0  0  0  0  0  0  0  0  0  0  0
  -35.9480    3.4664  -44.1723 N   0  0  0  0  0  0  0  0  0  0  0  0
  -34.6958    4.1916  -44.4226 C   0  0  0  0  0  0  0  0  0  0  0  0
  -34.2559    4.9088  -43.1442 C   0  0  0  0  0  0  0  0  0  0  0  0
  -36.3899    2.5211  -45.5270 X   0  0  0  0  0  0  0  0  0  0  0  0
  1  2  1  0  0  0  0
  2  3  1  0  0  0  0
  3  4  1  0  0  0  0
  4  5  1  0  0  0  0
  5  6  1  0  0  0  0
  5 10  1  0  0  0  0
  6  7  1  0  0  0  0
  7  8  1  0  0  0  0
  8  9  1  0  0  0  0
  8 11  1  0  0  0  0
  9 10  1  0  0  0  0
M  END
> <Index>
22126

> <PropertyFieldDistance>
nan

$$$$
16715148
BBcorina  12272117083D 1   1.00000     0.00000 
CORINA 4.3.0 0026  30.10.2019
 13 14  0  0  0  0  0  0  0  0999 V2000
  -35.9667    3.4656  -44.1712 N   0  0  0  0  0  0  0  0  0  0  0  0
  -36.9746    4.4859  -43.8390 C   0  0  0  0  0  0  0  0  0  0  0  0
  -36.6713    5.0326  -42.4417 C   0  0  0  0  0  0  0  0  0  0  0  0
  -35.2179    5.4054  -42.3478 C   0  0  0  0  0  0  0  0  0  0  0  0
  -34.3200    4.9859  -43.2127 C   0  0  0  0  0  0  0  0  0  0  0  0
  -34.6548    4.0935  -44.3731 C   0  0  0  0  0  0  0  0  0  0  0  0
  -34.7815    6.2835  -41.2428 C   0  0  0  0  0  0  0  0  0  0  0  0
  -33.4386    6.6490  -41.1265 C   0  0  0  0  0  0  0  0  0  0  0  0
  -33.0547    7.4333  -40.1371 N   0  0  0  0  0  0  0  0  0  0  0  0
  -33.9387    7.8724  -39.2574 C   0  0  0  0  0  0  0  0  0  0  0  0
  -35.2712    7.5129  -39.3684 C   0  0  0  0  0  0  0  0  0  0  0  0
  -35.6665    6.7289  -40.3541 N   0  0  0  0  0  0  0  0  0  0  0  0
  -35.8900    2.2624  -42.9586 X   0  0  0  0  0  0  0  0  0  0  0  0
  1  2  1  0  0  0  0
  1  6  1  0  0  0  0
  1 13  1  0  0  0  0
  2  3  1  0  0  0  0
  3  4  1  0  0  0  0
  4  5  2  0  0  0  0
  4  7  1  0  0  0  0
  5  6  1  0  0  0  0
  7  8  2  0  0  0  0
  7 12  1  0  0  0  0
  8  9  1  0  0  0  0
  9 10  2  0  0  0  0
 10 11  1  0  0  0  0
 11 12  2  0  0  0  0
M  END
> <Index>
22136

> <PropertyFieldDistance>
nan

$$$$
16722116
BBcorina  12272117083D 1   1.00000     0.00000 
CORINA 4.3.0 0026  30.10.2019
 11 11  0  0  0  0  0  0  0  0999 V2000
  -39.1426    3.5921  -42.5040 C   0  0  0  0  0  0  0  0  0  0  0  0
  -37.9173    3.0841  -43.2665 C   0  0  0  0  0  0  0  0  0  0  0  0
  -37.0736    4.2745  -43.7271 C   0  0  0  0  0  0  0  0  0  0  0  0
  -37.9377    5.2622  -44.5136 C   0  0  0  0  0  0  0  0  0  0  0  0
  -38.4196    4.6197  -45.7436 N   0  0  0  0  0  0  0  0  0  0  0  0
  -36.4294    4.9757  -42.5107 C   0  0  0  0  0  0  0  0  0  0  0  0
  -35.0513    4.2747  -42.4380 C   0  0  0  0  0  0  0  0  0  0  0  0
  -34.8035    3.8004  -43.8529 C   0  0  0  0  0  0  0  0  0  0  0  0
  -33.7267    3.4545  -44.2910 O   0  0  0  0  0  0  0  0  0  0  0  0
  -35.9513    3.8125  -44.5523 N   0  0  0  0  0  0  0  0  0  0  0  0
  -39.4067    5.6856  -46.6456 X   0  0  0  0  0  0  0  0  0  0  0  0
  1  2  1  0  0  0  0
  2  3  1  0  0  0  0
  3  4  1  0  0  0  0
  3  6  1  0  0  0  0
  3 10  1  0  0  0  0
  4  5  1  0  0  0  0
  5 11  1  0  0  0  0
  6  7  1  0  0  0  0
  7  8  1  0  0  0  0
  8  9  2  0  0  0  0
  8 10  1  0  0  0  0
M  END
> <Index>
22137

> <PropertyFieldDistance>
nan

$$$$
16712388
BBcorina  12272117083D 1   1.00000     0.00000 
CORINA 4.3.0 0026  30.10.2019
  6  6  0  0  0  0  0  0  0  0999 V2000
  -37.6948    4.7828  -40.9732 Br  0  0  0  0  0  0  0  0  0  0  0  0
  -36.4846    4.8057  -42.5225 C   0  0  0  0  0  0  0  0  0  0  0  0
  -37.1759    4.5246  -43.8641 C   0  0  0  0  0  0  0  0  0  0  0  0
  -36.0032    3.7116  -44.2370 N   0  0  0  0  0  0  0  0  0  0  0  0
  -35.7852    3.4674  -42.7989 C   0  0  0  0  0  0  0  0  0  0  0  0
  -36.4810    2.2776  -45.0366 X   0  0  0  0  0  0  0  0  0  0  0  0
  1  2  1  0  0  0  0
  2  3  1  0  0  0  0
  2  5  1  0  0  0  0
  3  4  1  0  0  0  0
  4  5  1  0  0  0  0
  4  6  1  0  0  0  0
M  END
> <Index>
22140

> <PropertyFieldDistance>
nan

$$$$
16712390
BBcorina  12272117083D 1   1.00000     0.00000 
CORINA 4.3.0 0026  30.10.2019
 15 16  0  0  0  0  0  0  0  0999 V2000
  -32.9622    5.4395  -43.2403 N   0  0  0  0  0  0  0  0  0  0  0  0
  -34.3574    5.1703  -43.6132 C   0  0  0  0  0  0  0  0  0  0  0  0
  -35.2871    5.6607  -42.5007 C   0  0  0  0  0  0  0  0  0  0  0  0
  -36.7424    5.4106  -42.9026 C   0  0  0  0  0  0  0  0  0  0  0  0
  -36.9648    3.9065  -43.0906 C   0  0  0  0  0  0  0  0  0  0  0  0
  -35.9772    3.3992  -44.0530 N   0  0  0  0  0  0  0  0  0  0  0  0
  -34.5527    3.6636  -43.8092 C   0  0  0  0  0  0  0  0  0  0  0  0
  -36.3801    2.6875  -45.1645 C   0  0  0  0  0  0  0  0  0  0  0  0
  -35.5668    1.6978  -45.6912 C   0  0  0  0  0  0  0  0  0  0  0  0
  -36.0148    0.9959  -46.8188 C   0  0  0  0  0  0  0  0  0  0  0  0
  -35.3321    0.1132  -47.3137 O   0  0  0  0  0  0  0  0  0  0  0  0
  -37.2130    1.3175  -47.3495 N   0  0  0  0  0  0  0  0  0  0  0  0
  -37.9612    2.2936  -46.7977 C   0  0  0  0  0  0  0  0  0  0  0  0
  -37.5603    2.9533  -45.7460 N   0  0  0  0  0  0  0  0  0  0  0  0
  -32.5186    4.5539  -41.8463 X   0  0  0  0  0  0  0  0  0  0  0  0
  1  2  1  0  0  0  0
  1 15  1  0  0  0  0
  2  3  1  0  0  0  0
  2  7  1  0  0  0  0
  3  4  1  0  0  0  0
  4  5  1  0  0  0  0
  5  6  1  0  0  0  0
  6  7  1  0  0  0  0
  6  8  1  0  0  0  0
  8  9  2  0  0  0  0
  8 14  1  0  0  0  0
  9 10  1  0  0  0  0
 10 11  2  0  0  0  0
 10 12  1  0  0  0  0
 12 13  1  0  0  0  0
 13 14  2  0  0  0  0
M  END
> <Index>
22141

> <PropertyFieldDistance>
nan

$$$$
16646708
BBcorina  12272117083D 1   1.00000     0.00000 
CORINA 4.3.0 0026  30.10.2019
 12 13  0  0  0  0  0  0  0  0999 V2000
  -36.0186    3.8881  -44.5694 N   0  0  0  0  0  0  0  0  0  0  0  0
  -36.9935    4.0448  -43.4899 C   0  0  0  0  0  0  0  0  0  0  0  0
  -36.6705    5.2437  -42.6080 C   0  0  0  0  0  0  0  0  0  0  0  0
  -35.2455    5.1110  -42.0622 C   0  0  0  0  0  0  0  0  0  0  0  0
  -34.2783    5.0423  -43.2480 C   0  0  0  0  0  0  0  0  0  0  0  0
  -34.6264    3.8447  -44.1224 C   0  0  0  0  0  0  0  0  0  0  0  0
  -34.3495    2.5379  -43.3753 C   0  0  0  0  0  0  0  0  0  0  0  0
  -34.7471    2.7161  -41.9275 C   0  0  0  0  0  0  0  0  0  0  0  0
  -33.8970    2.7604  -41.0637 O   0  0  0  0  0  0  0  0  0  0  0  0
  -36.0442    2.8203  -41.6018 N   0  0  0  0  0  0  0  0  0  0  0  0
  -37.0706    2.7672  -42.6520 C   0  0  0  0  0  0  0  0  0  0  0  0
  -36.3930    2.5316  -45.5409 X   0  0  0  0  0  0  0  0  0  0  0  0
  1  2  1  0  0  0  0
  1  6  1  0  0  0  0
  1 12  1  0  0  0  0
  2  3  1  0  0  0  0
  2 11  1  0  0  0  0
  3  4  1  0  0  0  0
  4  5  1  0  0  0  0
  5  6  1  0  0  0  0
  6  7  1  0  0  0  0
  7  8  1  0  0  0  0
  8  9  2  0  0  0  0
  8 10  1  0  0  0  0
 10 11  1  0  0  0  0
M  END
> <Index>
22152

> <PropertyFieldDistance>
nan

$$$$
752194
BBcorina  12272117083D 1   1.00000     0.00000 
CORINA 4.3.0 0026  30.10.2019
 16 17  0  0  0  0  0  0  0  0999 V2000
  -34.6913    5.8777  -41.1379 C   0  0  0  0  0  0  0  0  0  0  0  0
  -35.2252    5.4036  -42.4217 N   0  0  0  0  0  0  0  0  0  0  0  0
  -36.5620    4.8186  -42.2520 C   0  0  0  0  0  0  0  0  0  0  0  0
  -37.1565    4.5036  -43.6288 C   0  0  0  0  0  0  0  0  0  0  0  0
  -36.2009    3.6666  -44.3700 N   0  0  0  0  0  0  0  0  0  0  0  0
  -34.8041    4.1185  -44.4604 C   0  0  0  0  0  0  0  0  0  0  0  0
  -34.3035    4.4517  -43.0559 C   0  0  0  0  0  0  0  0  0  0  0  0
  -36.5934    2.5133  -44.9464 C   0  0  0  0  0  0  0  0  0  0  0  0
  -37.7642    2.1972  -44.9345 O   0  0  0  0  0  0  0  0  0  0  0  0
  -35.5775    1.6164  -45.6057 C   0  0  0  0  0  0  0  0  0  0  0  0
  -35.3428    2.0810  -47.0456 C   0  0  0  0  0  0  0  0  0  0  0  0
  -34.3566    1.1307  -47.7287 C   0  0  0  0  0  0  0  0  0  0  0  0
  -34.9016   -0.2328  -47.7181 N   0  0  0  0  0  0  0  0  0  0  0  0
  -35.0910   -0.7182  -46.3450 C   0  0  0  0  0  0  0  0  0  0  0  0
  -36.0991    0.1769  -45.6207 C   0  0  0  0  0  0  0  0  0  0  0  0
  -33.9064   -1.2975  -48.6126 X   0  0  0  0  0  0  0  0  0  0  0  0
  1  2  1  0  0  0  0
  2  3  1  0  0  0  0
  2  7  1  0  0  0  0
  3  4  1  0  0  0  0
  4  5  1  0  0  0  0
  5  6  1  0  0  0  0
  5  8  1  0  0  0  0
  6  7  1  0  0  0  0
  8  9  2  0  0  0  0
  8 10  1  0  0  0  0
 10 11  1  0  0  0  0
 10 15  1  0  0  0  0
 11 12  1  0  0  0  0
 12 13  1  0  0  0  0
 13 14  1  0  0  0  0
 13 16  1  0  0  0  0
 14 15  1  0  0  0  0
M  END
> <Index>
22166

> <PropertyFieldDistance>
nan

$$$$
4914392
BBcorina  12272117083D 1   1.00000     0.00000 
CORINA 4.3.0 0026  30.10.2019
 10 10  0  0  0  0  0  0  0  0999 V2000
  -36.0173    3.5927  -44.4913 N   0  0  0  0  0  0  0  0  0  0  0  0
  -36.3933    2.1752  -44.5753 C   0  0  0  0  0  0  0  0  0  0  0  0
  -36.1059    1.6538  -45.9847 C   0  0  0  0  0  0  0  0  0  0  0  0
  -36.4976    0.1773  -46.0721 C   0  0  0  0  0  0  0  0  0  0  0  0
  -36.0960   -0.3791  -47.4416 C   0  0  0  0  0  0  0  0  0  0  0  0
  -36.5619   -1.8334  -47.5493 C   0  0  0  0  0  0  0  0  0  0  0  0
  -37.9757   -1.8952  -47.3503 O   0  0  0  0  0  0  0  0  0  0  0  0
  -38.4053   -1.4320  -46.0685 C   0  0  0  0  0  0  0  0  0  0  0  0
  -38.0134    0.0384  -45.9013 C   0  0  0  0  0  0  0  0  0  0  0  0
  -36.3230    4.2163  -42.9287 X   0  0  0  0  0  0  0  0  0  0  0  0
  1  2  1  0  0  0  0
  1 10  1  0  0  0  0
  2  3  1  0  0  0  0
  3  4  1  0  0  0  0
  4  5  1  0  0  0  0
  4  9  1  0  0  0  0
  5  6  1  0  0  0  0
  6  7  1  0  0  0  0
  7  8  1  0  0  0  0
  8  9  1  0  0  0  0
M  END
> <Index>
22193

> <PropertyFieldDistance>
nan

$$$$
16762222
BBcorina  12272117083D 1   1.00000     0.00000 
CORINA 4.3.0 0026  30.10.2019
 13 14  0  0  0  0  0  0  0  0999 V2000
  -36.0191    3.9414  -44.5845 N   0  0  0  0  0  0  0  0  0  0  0  0
  -36.9723    4.0087  -43.4695 C   0  0  0  0  0  0  0  0  0  0  0  0
  -36.6793    5.2476  -42.6202 C   0  0  0  0  0  0  0  0  0  0  0  0
  -35.2462    5.1675  -42.0870 C   0  0  0  0  0  0  0  0  0  0  0  0
  -34.2769    5.0496  -43.2665 C   0  0  0  0  0  0  0  0  0  0  0  0
  -34.6396    3.8164  -44.0971 C   0  0  0  0  0  0  0  0  0  0  0  0
  -34.9317    6.4133  -41.2993 C   0  0  0  0  0  0  0  0  0  0  0  0
  -34.4833    7.5516  -41.9500 C   0  0  0  0  0  0  0  0  0  0  0  0
  -34.2061    8.6750  -41.1813 C   0  0  0  0  0  0  0  0  0  0  0  0
  -34.3893    8.5861  -39.8107 C   0  0  0  0  0  0  0  0  0  0  0  0
  -34.8259    7.4604  -39.2781 N   0  0  0  0  0  0  0  0  0  0  0  0
  -35.0821    6.4224  -39.9884 N   0  0  0  0  0  0  0  0  0  0  0  0
  -36.4110    2.6621  -45.6494 X   0  0  0  0  0  0  0  0  0  0  0  0
  1  2  1  0  0  0  0
  1  6  1  0  0  0  0
  1 13  1  0  0  0  0
  2  3  1  0  0  0  0
  3  4  1  0  0  0  0
  4  5  1  0  0  0  0
  4  7  1  0  0  0  0
  5  6  1  0  0  0  0
  7  8  2  0  0  0  0
  7 12  1  0  0  0  0
  8  9  1  0  0  0  0
  9 10  2  0  0  0  0
 10 11  1  0  0  0  0
 11 12  2  0  0  0  0
M  END
> <Index>
22202

> <PropertyFieldDistance>
nan

$$$$
16762240
BBcorina  12272117083D 1   1.00000     0.00000 
CORINA 4.3.0 0026  30.10.2019
 12 13  0  0  0  0  0  0  0  0999 V2000
  -35.7544    6.7540  -40.9457 C   0  0  0  0  0  0  0  0  0  0  0  0
  -34.9281    5.7180  -41.5793 N   0  0  0  0  0  0  0  0  0  0  0  0
  -33.6134    5.6234  -40.9308 C   0  0  0  0  0  0  0  0  0  0  0  0
  -35.6141    4.4190  -41.5705 C   0  0  0  0  0  0  0  0  0  0  0  0
  -36.9589    4.5483  -42.2914 C   0  0  0  0  0  0  0  0  0  0  0  0
  -36.7006    4.8437  -43.7775 C   0  0  0  0  0  0  0  0  0  0  0  0
  -35.6533    5.9782  -43.8589 C   0  0  0  0  0  0  0  0  0  0  0  0
  -34.2891    5.2577  -43.8531 C   0  0  0  0  0  0  0  0  0  0  0  0
  -34.6359    3.7534  -43.7685 C   0  0  0  0  0  0  0  0  0  0  0  0
  -34.7442    3.3787  -42.2818 C   0  0  0  0  0  0  0  0  0  0  0  0
  -36.0028    3.6605  -44.3472 N   0  0  0  0  0  0  0  0  0  0  0  0
  -35.9522    3.7422  -46.0546 X   0  0  0  0  0  0  0  0  0  0  0  0
  1  2  1  0  0  0  0
  2  3  1  0  0  0  0
  2  4  1  0  0  0  0
  4  5  1  0  0  0  0
  4 10  1  0  0  0  0
  5  6  1  0  0  0  0
  6  7  1  0  0  0  0
  6 11  1  0  0  0  0
  7  8  1  0  0  0  0
  8  9  1  0  0  0  0
  9 10  1  0  0  0  0
  9 11  1  0  0  0  0
 11 12  1  0  0  0  0
M  END
> <Index>
22214

> <PropertyFieldDistance>
nan

$$$$
16733986
BBcorina  12272117083D 1   1.00000     0.00000 
CORINA 4.3.0 0026  30.10.2019
 12 12  0  0  0  0  0  0  0  0999 V2000
  -35.3802    8.0986  -39.5860 C   0  0  0  0  0  0  0  0  0  0  0  0
  -35.7705    7.4516  -40.8411 N   0  0  0  0  0  0  0  0  0  0  0  0
  -37.0505    7.7861  -41.4706 C   0  0  0  0  0  0  0  0  0  0  0  0
  -34.9521    6.5487  -41.4168 C   0  0  0  0  0  0  0  0  0  0  0  0
  -33.8925    6.2718  -40.8957 O   0  0  0  0  0  0  0  0  0  0  0  0
  -35.3535    5.8833  -42.7079 C   0  0  0  0  0  0  0  0  0  0  0  0
  -36.6585    5.1099  -42.5008 C   0  0  0  0  0  0  0  0  0  0  0  0
  -37.0291    4.3869  -43.7977 C   0  0  0  0  0  0  0  0  0  0  0  0
  -35.9480    3.4664  -44.1723 N   0  0  0  0  0  0  0  0  0  0  0  0
  -34.6958    4.1916  -44.4226 C   0  0  0  0  0  0  0  0  0  0  0  0
  -34.2559    4.9088  -43.1442 C   0  0  0  0  0  0  0  0  0  0  0  0
  -36.3899    2.5211  -45.5270 X   0  0  0  0  0  0  0  0  0  0  0  0
  1  2  1  0  0  0  0
  2  3  1  0  0  0  0
  2  4  1  0  0  0  0
  4  5  2  0  0  0  0
  4  6  1  0  0  0  0
  6  7  1  0  0  0  0
  6 11  1  0  0  0  0
  7  8  1  0  0  0  0
  8  9  1  0  0  0  0
  9 10  1  0  0  0  0
  9 12  1  0  0  0  0
 10 11  1  0  0  0  0
M  END
> <Index>
22224

> <PropertyFieldDistance>
nan

$$$$
16762234
BBcorina  12272117083D 1   1.00000     0.00000 
CORINA 4.3.0 0026  30.10.2019
  9  9  0  0  0  0  0  0  0  0999 V2000
  -36.0634    3.4285  -45.9106 O   0  0  0  0  0  0  0  0  0  0  0  0
  -35.9513    3.8125  -44.5523 N   0  0  0  0  0  0  0  0  0  0  0  0
  -37.0736    4.2745  -43.7271 C   0  0  0  0  0  0  0  0  0  0  0  0
  -36.4294    4.9757  -42.5107 C   0  0  0  0  0  0  0  0  0  0  0  0
  -35.0513    4.2747  -42.4380 C   0  0  0  0  0  0  0  0  0  0  0  0
  -34.8034    3.8004  -43.8529 C   0  0  0  0  0  0  0  0  0  0  0  0
  -33.7267    3.4544  -44.2911 O   0  0  0  0  0  0  0  0  0  0  0  0
  -37.2066    4.7283  -41.2888 N   0  0  0  0  0  0  0  0  0  0  0  0
  -37.2023    3.0666  -40.8858 X   0  0  0  0  0  0  0  0  0  0  0  0
  1  2  1  0  0  0  0
  2  3  1  0  0  0  0
  2  6  1  0  0  0  0
  3  4  1  0  0  0  0
  4  5  1  0  0  0  0
  4  8  1  0  0  0  0
  5  6  1  0  0  0  0
  6  7  2  0  0  0  0
  8  9  1  0  0  0  0
M  END
> <Index>
22228

> <PropertyFieldDistance>
nan

$$$$
15781202
BBcorina  12272117083D 1   1.00000     0.00000 
CORINA 4.3.0 0026  30.10.2019
 11 12  0  0  0  0  0  0  0  0999 V2000
  -36.0375    2.2481  -46.4305 N   0  0  0  0  0  0  0  0  0  0  0  0
  -36.6397    2.9968  -45.4181 C   0  0  0  0  0  0  0  0  0  0  0  0
  -37.9713    3.1625  -45.2137 C   0  0  0  0  0  0  0  0  0  0  0  0
  -38.1357    3.9517  -44.1366 N   0  0  0  0  0  0  0  0  0  0  0  0
  -36.9741    4.2814  -43.6652 C   0  0  0  0  0  0  0  0  0  0  0  0
  -36.6524    5.1481  -42.4706 C   0  0  0  0  0  0  0  0  0  0  0  0
  -35.2704    4.9453  -42.1435 O   0  0  0  0  0  0  0  0  0  0  0  0
  -34.3820    5.0634  -43.2579 C   0  0  0  0  0  0  0  0  0  0  0  0
  -34.5715    3.8675  -44.2011 C   0  0  0  0  0  0  0  0  0  0  0  0
  -36.0073    3.7031  -44.4429 N   0  0  0  0  0  0  0  0  0  0  0  0
  -37.0045    1.4227  -47.5741 X   0  0  0  0  0  0  0  0  0  0  0  0
  1  2  1  0  0  0  0
  1 11  1  0  0  0  0
  2  3  2  0  0  0  0
  2 10  1  0  0  0  0
  3  4  1  0  0  0  0
  4  5  2  0  0  0  0
  5  6  1  0  0  0  0
  5 10  1  0  0  0  0
  6  7  1  0  0  0  0
  7  8  1  0  0  0  0
  8  9  1  0  0  0  0
  9 10  1  0  0  0  0
M  END
> <Index>
22235

> <PropertyFieldDistance>
nan

$$$$
16809838
BBcorina  12272117083D 1   1.00000     0.00000 
CORINA 4.3.0 0026  30.10.2019
 12 13  0  0  0  0  0  0  0  0999 V2000
  -38.6235    1.1615  -45.2142 O   0  0  0  0  0  0  0  0  0  0  0  0
  -37.3261    1.7605  -45.2233 C   0  0  0  0  0  0  0  0  0  0  0  0
  -37.3576    3.2986  -45.2148 C   0  0  0  0  0  0  0  0  0  0  0  0
  -36.1782    3.2364  -44.2361 C   0  0  0  0  0  0  0  0  0  0  0  0
  -36.6758    1.8427  -43.8316 C   0  0  0  0  0  0  0  0  0  0  0  0
  -34.8146    3.2203  -44.9238 C   0  0  0  0  0  0  0  0  0  0  0  0
  -33.7248    2.9703  -43.8774 C   0  0  0  0  0  0  0  0  0  0  0  0
  -33.7937    4.0555  -42.8015 C   0  0  0  0  0  0  0  0  0  0  0  0
  -35.1493    3.9960  -42.0952 C   0  0  0  0  0  0  0  0  0  0  0  0
  -36.2646    4.2644  -43.1099 C   0  0  0  0  0  0  0  0  0  0  0  0
  -32.7217    3.8399  -41.8205 N   0  0  0  0  0  0  0  0  0  0  0  0
  -32.2082    5.3215  -41.1384 X   0  0  0  0  0  0  0  0  0  0  0  0
  1  2  1  0  0  0  0
  2  3  1  0  0  0  0
  2  5  1  0  0  0  0
  3  4  1  0  0  0  0
  4  5  1  0  0  0  0
  4  6  1  0  0  0  0
  4 10  1  0  0  0  0
  6  7  1  0  0  0  0
  7  8  1  0  0  0  0
  8  9  1  0  0  0  0
  8 11  1  0  0  0  0
  9 10  1  0  0  0  0
 11 12  1  0  0  0  0
M  END
> <Index>
22242

> <PropertyFieldDistance>
nan

$$$$
16923386
BBcorina  12272117083D 1   1.00000     0.00000 
CORINA 4.3.0 0026  30.10.2019
 11 11  0  0  0  0  0  0  0  0999 V2000
  -39.2876    2.8530  -45.0978 C   0  0  0  0  0  0  0  0  0  0  0  0
  -38.7025    4.1419  -45.4907 N   0  0  0  0  0  0  0  0  0  0  0  0
  -39.6528    4.9308  -46.2860 C   0  0  0  0  0  0  0  0  0  0  0  0
  -38.2488    4.8948  -44.3137 C   0  0  0  0  0  0  0  0  0  0  0  0
  -37.0854    4.1537  -43.6515 C   0  0  0  0  0  0  0  0  0  0  0  0
  -36.4271    5.0337  -42.5596 C   0  0  0  0  0  0  0  0  0  0  0  0
  -34.9963    4.4557  -42.4658 C   0  0  0  0  0  0  0  0  0  0  0  0
  -34.9055    3.5242  -41.3859 O   0  0  0  0  0  0  0  0  0  0  0  0
  -34.7625    3.7407  -43.8095 C   0  0  0  0  0  0  0  0  0  0  0  0
  -35.9827    3.9350  -44.6224 N   0  0  0  0  0  0  0  0  0  0  0  0
  -36.2907    2.5674  -45.6017 X   0  0  0  0  0  0  0  0  0  0  0  0
  1  2  1  0  0  0  0
  2  3  1  0  0  0  0
  2  4  1  0  0  0  0
  4  5  1  0  0  0  0
  5  6  1  0  0  0  0
  5 10  1  0  0  0  0
  6  7  1  0  0  0  0
  7  8  1  0  0  0  0
  7  9  1  0  0  0  0
  9 10  1  0  0  0  0
 10 11  1  0  0  0  0
M  END
> <Index>
22244

> <PropertyFieldDistance>
nan

$$$$
16809934
BBcorina  12272117083D 1   1.00000     0.00000 
CORINA 4.3.0 0026  30.10.2019
 11 12  0  0  0  0  0  0  0  0999 V2000
  -34.9448    5.9654  -41.0329 N   0  0  0  0  0  0  0  0  0  0  0  0
  -35.2731    4.9397  -42.0320 C   0  0  0  0  0  0  0  0  0  0  0  0
  -36.6295    5.2596  -42.6671 C   0  0  0  0  0  0  0  0  0  0  0  0
  -37.0795    4.0813  -43.5379 C   0  0  0  0  0  0  0  0  0  0  0  0
  -35.9842    3.7144  -44.4385 N   0  0  0  0  0  0  0  0  0  0  0  0
  -36.0372    3.0069  -45.5090 N   0  0  0  0  0  0  0  0  0  0  0  0
  -34.8503    2.9228  -46.0075 N   0  0  0  0  0  0  0  0  0  0  0  0
  -34.0229    3.5753  -45.2610 N   0  0  0  0  0  0  0  0  0  0  0  0
  -34.6984    4.0830  -44.2691 C   0  0  0  0  0  0  0  0  0  0  0  0
  -34.1957    4.9253  -43.1250 C   0  0  0  0  0  0  0  0  0  0  0  0
  -34.9687    7.5276  -41.7276 X   0  0  0  0  0  0  0  0  0  0  0  0
  1  2  1  0  0  0  0
  1 11  1  0  0  0  0
  2  3  1  0  0  0  0
  2 10  1  0  0  0  0
  3  4  1  0  0  0  0
  4  5  1  0  0  0  0
  5  6  1  0  0  0  0
  5  9  1  0  0  0  0
  6  7  2  0  0  0  0
  7  8  1  0  0  0  0
  8  9  2  0  0  0  0
  9 10  1  0  0  0  0
M  END
> <Index>
22246

> <PropertyFieldDistance>
nan

$$$$
7100476
BBcorina  12272117083D 1   1.00000     0.00000 
CORINA 4.3.0 0026  30.10.2019
 11 11  0  0  0  0  0  0  0  0999 V2000
  -37.3525    0.8544  -46.3021 N   0  0  0  0  0  0  0  0  0  0  0  0
  -36.9265    1.5775  -45.2475 C   0  0  0  0  0  0  0  0  0  0  0  0
  -37.3901    1.3736  -44.1456 O   0  0  0  0  0  0  0  0  0  0  0  0
  -35.8696    2.6350  -45.4366 C   0  0  0  0  0  0  0  0  0  0  0  0
  -35.6843    3.3723  -44.1796 N   0  0  0  0  0  0  0  0  0  0  0  0
  -36.8869    4.1461  -43.8406 C   0  0  0  0  0  0  0  0  0  0  0  0
  -36.6834    4.8342  -42.4888 C   0  0  0  0  0  0  0  0  0  0  0  0
  -35.5022    5.7057  -42.5587 N   0  0  0  0  0  0  0  0  0  0  0  0
  -34.2997    4.9321  -42.8976 C   0  0  0  0  0  0  0  0  0  0  0  0
  -34.5032    4.2439  -44.2494 C   0  0  0  0  0  0  0  0  0  0  0  0
  -35.2865    6.5640  -41.0955 X   0  0  0  0  0  0  0  0  0  0  0  0
  1  2  1  0  0  0  0
  2  3  2  0  0  0  0
  2  4  1  0  0  0  0
  4  5  1  0  0  0  0
  5  6  1  0  0  0  0
  5 10  1  0  0  0  0
  6  7  1  0  0  0  0
  7  8  1  0  0  0  0
  8  9  1  0  0  0  0
  8 11  1  0  0  0  0
  9 10  1  0  0  0  0
M  END
> <Index>
22260

> <PropertyFieldDistance>
nan

$$$$
18181498
BBcorina  12272117083D 1   1.00000     0.00000 
CORINA 4.3.0 0026  30.10.2019
 13 14  0  0  0  0  0  0  0  0999 V2000
  -38.7225   -0.8079  -44.6225 Br  0  0  0  0  0  0  0  0  0  0  0  0
  -37.4006    0.4600  -45.0925 C   0  0  0  0  0  0  0  0  0  0  0  0
  -36.5224    0.2553  -46.0755 C   0  0  0  0  0  0  0  0  0  0  0  0
  -35.4785    1.6705  -46.1802 S   0  0  0  0  0  0  0  0  0  0  0  0
  -36.3252    2.4040  -44.8886 C   0  0  0  0  0  0  0  0  0  0  0  0
  -37.2685    1.6182  -44.4704 N   0  0  0  0  0  0  0  0  0  0  0  0
  -36.0411    3.6541  -44.3614 N   0  0  0  0  0  0  0  0  0  0  0  0
  -36.9585    3.9825  -43.2614 C   0  0  0  0  0  0  0  0  0  0  0  0
  -36.6645    5.3986  -42.7606 C   0  0  0  0  0  0  0  0  0  0  0  0
  -35.2658    5.4779  -42.3168 N   0  0  0  0  0  0  0  0  0  0  0  0
  -34.3480    5.1498  -43.4166 C   0  0  0  0  0  0  0  0  0  0  0  0
  -34.6420    3.7336  -43.9175 C   0  0  0  0  0  0  0  0  0  0  0  0
  -34.9158    7.0201  -41.6662 X   0  0  0  0  0  0  0  0  0  0  0  0
  1  2  1  0  0  0  0
  2  3  2  0  0  0  0
  2  6  1  0  0  0  0
  3  4  1  0  0  0  0
  4  5  1  0  0  0  0
  5  6  2  0  0  0  0
  5  7  1  0  0  0  0
  7  8  1  0  0  0  0
  7 12  1  0  0  0  0
  8  9  1  0  0  0  0
  9 10  1  0  0  0  0
 10 11  1  0  0  0  0
 10 13  1  0  0  0  0
 11 12  1  0  0  0  0
M  END
> <Index>
22268

> <PropertyFieldDistance>
nan

$$$$
10301220
BBcorina  12272117083D 1   1.00000     0.00000 
CORINA 4.3.0 0026  30.10.2019
 10 10  0  0  0  0  0  0  0  0999 V2000
  -34.6143    1.8047  -46.2900 C   0  0  0  0  0  0  0  0  0  0  0  0
  -36.1059    1.6538  -45.9847 C   0  0  0  0  0  0  0  0  0  0  0  0
  -36.3933    2.1751  -44.5752 C   0  0  0  0  0  0  0  0  0  0  0  0
  -36.0173    3.5927  -44.4913 N   0  0  0  0  0  0  0  0  0  0  0  0
  -36.4977    0.1774  -46.0720 C   0  0  0  0  0  0  0  0  0  0  0  0
  -36.2102   -0.3439  -47.4814 C   0  0  0  0  0  0  0  0  0  0  0  0
  -37.0228    0.4603  -48.4983 C   0  0  0  0  0  0  0  0  0  0  0  0
  -36.6311    1.9367  -48.4109 C   0  0  0  0  0  0  0  0  0  0  0  0
  -36.9185    2.4580  -47.0014 C   0  0  0  0  0  0  0  0  0  0  0  0
  -36.3229    4.2164  -42.9287 X   0  0  0  0  0  0  0  0  0  0  0  0
  1  2  1  0  0  0  0
  2  3  1  0  0  0  0
  2  5  1  0  0  0  0
  2  9  1  0  0  0  0
  3  4  1  0  0  0  0
  4 10  1  0  0  0  0
  5  6  1  0  0  0  0
  6  7  1  0  0  0  0
  7  8  1  0  0  0  0
  8  9  1  0  0  0  0
M  END
> <Index>
22269

> <PropertyFieldDistance>
nan

$$$$
16762258
BBcorina  12272117083D 1   1.00000     0.00000 
CORINA 4.3.0 0026  30.10.2019
 14 15  0  0  0  0  0  0  0  0999 V2000
  -35.8404   -0.3252  -44.2661 C   0  0  0  0  0  0  0  0  0  0  0  0
  -35.2276    0.4630  -45.3383 N   0  0  0  0  0  0  0  0  0  0  0  0
  -34.1957    0.0700  -46.1473 C   0  0  0  0  0  0  0  0  0  0  0  0
  -33.9450    1.0946  -46.9844 C   0  0  0  0  0  0  0  0  0  0  0  0
  -34.8062    2.0829  -46.7002 N   0  0  0  0  0  0  0  0  0  0  0  0
  -35.5754    1.7129  -45.7131 C   0  0  0  0  0  0  0  0  0  0  0  0
  -36.6706    2.5427  -45.0944 C   0  0  0  0  0  0  0  0  0  0  0  0
  -36.1183    3.3364  -43.9885 N   0  0  0  0  0  0  0  0  0  0  0  0
  -37.0926    4.3292  -43.5148 C   0  0  0  0  0  0  0  0  0  0  0  0
  -36.5103    5.0791  -42.3144 C   0  0  0  0  0  0  0  0  0  0  0  0
  -35.2517    5.7273  -42.7086 N   0  0  0  0  0  0  0  0  0  0  0  0
  -34.2773    4.7344  -43.1823 C   0  0  0  0  0  0  0  0  0  0  0  0
  -34.8596    3.9845  -44.3828 C   0  0  0  0  0  0  0  0  0  0  0  0
  -34.6087    6.6511  -41.4212 X   0  0  0  0  0  0  0  0  0  0  0  0
  1  2  1  0  0  0  0
  2  3  1  0  0  0  0
  2  6  1  0  0  0  0
  3  4  2  0  0  0  0
  4  5  1  0  0  0  0
  5  6  2  0  0  0  0
  6  7  1  0  0  0  0
  7  8  1  0  0  0  0
  8  9  1  0  0  0  0
  8 13  1  0  0  0  0
  9 10  1  0  0  0  0
 10 11  1  0  0  0  0
 11 12  1  0  0  0  0
 11 14  1  0  0  0  0
 12 13  1  0  0  0  0
M  END
> <Index>
22283

> <PropertyFieldDistance>
nan

$$$$
16954818
BBcorina  12272117083D 1   1.00000     0.00000 
CORINA 4.3.0 0026  30.10.2019
 11 11  0  0  0  0  0  0  0  0999 V2000
  -33.6415    7.3301  -41.6031 C   0  0  0  0  0  0  0  0  0  0  0  0
  -34.9460    6.5579  -41.3957 C   0  0  0  0  0  0  0  0  0  0  0  0
  -36.0470    7.5254  -40.9567 C   0  0  0  0  0  0  0  0  0  0  0  0
  -34.7597    5.5845  -40.4083 F   0  0  0  0  0  0  0  0  0  0  0  0
  -35.3532    5.8831  -42.7070 C   0  0  0  0  0  0  0  0  0  0  0  0
  -36.6587    5.1099  -42.5007 C   0  0  0  0  0  0  0  0  0  0  0  0
  -37.0290    4.3869  -43.7977 C   0  0  0  0  0  0  0  0  0  0  0  0
  -35.9480    3.4664  -44.1723 N   0  0  0  0  0  0  0  0  0  0  0  0
  -34.6958    4.1917  -44.4226 C   0  0  0  0  0  0  0  0  0  0  0  0
  -34.2558    4.9088  -43.1443 C   0  0  0  0  0  0  0  0  0  0  0  0
  -36.3899    2.5211  -45.5270 X   0  0  0  0  0  0  0  0  0  0  0  0
  1  2  1  0  0  0  0
  2  3  1  0  0  0  0
  2  4  1  0  0  0  0
  2  5  1  0  0  0  0
  5  6  1  0  0  0  0
  5 10  1  0  0  0  0
  6  7  1  0  0  0  0
  7  8  1  0  0  0  0
  8  9  1  0  0  0  0
  8 11  1  0  0  0  0
  9 10  1  0  0  0  0
M  END
> <Index>
22286

> <PropertyFieldDistance>
nan

$$$$
15563960
BBcorina  12272117083D 1   1.00000     0.00000 
CORINA 4.3.0 0026  30.10.2019
  9 10  0  0  0  0  0  0  0  0999 V2000
  -34.7035    2.2693  -41.3501 N   0  0  0  0  0  0  0  0  0  0  0  0
  -35.5815    2.1595  -42.5228 C   0  0  0  0  0  0  0  0  0  0  0  0
  -34.7988    1.6312  -43.7522 C   0  0  0  0  0  0  0  0  0  0  0  0
  -35.5499    2.1357  -44.8784 O   0  0  0  0  0  0  0  0  0  0  0  0
  -35.9606    3.4681  -44.5419 C   0  0  0  0  0  0  0  0  0  0  0  0
  -35.4907    4.6636  -45.3675 C   0  0  0  0  0  0  0  0  0  0  0  0
  -36.9562    4.2251  -45.4177 C   0  0  0  0  0  0  0  0  0  0  0  0
  -36.0397    3.5590  -43.0083 C   0  0  0  0  0  0  0  0  0  0  0  0
  -33.4482    3.3967  -41.6280 X   0  0  0  0  0  0  0  0  0  0  0  0
  1  2  1  0  0  0  0
  1  9  1  0  0  0  0
  2  3  1  0  0  0  0
  2  8  1  0  0  0  0
  3  4  1  0  0  0  0
  4  5  1  0  0  0  0
  5  6  1  0  0  0  0
  5  7  1  0  0  0  0
  5  8  1  0  0  0  0
  6  7  1  0  0  0  0
M  END
> <Index>
22298

> <PropertyFieldDistance>
nan

$$$$
15503494
BBcorina  12272117083D 1   1.00000     0.00000 
CORINA 4.3.0 0026  30.10.2019
 12 13  0  0  0  0  0  0  0  0999 V2000
  -34.6967    1.6798  -46.2203 O   0  0  0  0  0  0  0  0  0  0  0  0
  -36.1059    1.6538  -45.9846 C   0  0  0  0  0  0  0  0  0  0  0  0
  -36.3933    2.1751  -44.5753 C   0  0  0  0  0  0  0  0  0  0  0  0
  -36.0172    3.5927  -44.4913 N   0  0  0  0  0  0  0  0  0  0  0  0
  -36.6129    0.2155  -46.1056 C   0  0  0  0  0  0  0  0  0  0  0  0
  -36.4077   -0.2686  -47.5519 C   0  0  0  0  0  0  0  0  0  0  0  0
  -34.9814    0.1466  -47.9808 C   0  0  0  0  0  0  0  0  0  0  0  0
  -35.0982    1.5783  -48.5343 C   0  0  0  0  0  0  0  0  0  0  0  0
  -36.5899    1.9671  -48.4158 C   0  0  0  0  0  0  0  0  0  0  0  0
  -37.3275    0.6024  -48.4478 C   0  0  0  0  0  0  0  0  0  0  0  0
  -36.8033    2.5516  -47.0085 C   0  0  0  0  0  0  0  0  0  0  0  0
  -36.3230    4.2163  -42.9287 X   0  0  0  0  0  0  0  0  0  0  0  0
  1  2  1  0  0  0  0
  2  3  1  0  0  0  0
  2  5  1  0  0  0  0
  2 11  1  0  0  0  0
  3  4  1  0  0  0  0
  4 12  1  0  0  0  0
  5  6  1  0  0  0  0
  6  7  1  0  0  0  0
  6 10  1  0  0  0  0
  7  8  1  0  0  0  0
  8  9  1  0  0  0  0
  9 10  1  0  0  0  0
  9 11  1  0  0  0  0
M  END
> <Index>
22313

> <PropertyFieldDistance>
nan

$$$$
15508530
BBcorina  12272117083D 1   1.00000     0.00000 
CORINA 4.3.0 0026  30.10.2019
 10 10  0  0  0  0  0  0  0  0999 V2000
  -36.9088    2.4625  -47.0057 C   0  0  0  0  0  0  0  0  0  0  0  0
  -36.1059    1.6538  -45.9847 C   0  0  0  0  0  0  0  0  0  0  0  0
  -36.3933    2.1752  -44.5752 C   0  0  0  0  0  0  0  0  0  0  0  0
  -36.0173    3.5927  -44.4913 N   0  0  0  0  0  0  0  0  0  0  0  0
  -36.4973    0.1735  -46.0767 C   0  0  0  0  0  0  0  0  0  0  0  0
  -36.3722   -0.2752  -47.5343 C   0  0  0  0  0  0  0  0  0  0  0  0
  -35.0345    0.1413  -48.0854 C   0  0  0  0  0  0  0  0  0  0  0  0
  -34.2720    1.0362  -47.5437 C   0  0  0  0  0  0  0  0  0  0  0  0
  -34.6105    1.7786  -46.2842 C   0  0  0  0  0  0  0  0  0  0  0  0
  -36.3229    4.2163  -42.9287 X   0  0  0  0  0  0  0  0  0  0  0  0
  1  2  1  0  0  0  0
  2  3  1  0  0  0  0
  2  5  1  0  0  0  0
  2  9  1  0  0  0  0
  3  4  1  0  0  0  0
  4 10  1  0  0  0  0
  5  6  1  0  0  0  0
  6  7  1  0  0  0  0
  7  8  2  0  0  0  0
  8  9  1  0  0  0  0
M  END
> <Index>
22321

> <PropertyFieldDistance>
nan

$$$$
16906528
BBcorina  12272117083D 1   1.00000     0.00000 
CORINA 4.3.0 0026  30.10.2019
 12 12  0  0  0  0  0  0  0  0999 V2000
  -36.1373    0.6818  -46.6459 C   0  0  0  0  0  0  0  0  0  0  0  0
  -35.7651    2.0520  -46.0759 C   0  0  0  0  0  0  0  0  0  0  0  0
  -36.1440    3.0721  -47.0021 O   0  0  0  0  0  0  0  0  0  0  0  0
  -36.4976    2.2691  -44.7503 C   0  0  0  0  0  0  0  0  0  0  0  0
  -36.1226    3.5749  -44.1917 N   0  0  0  0  0  0  0  0  0  0  0  0
  -37.0296    3.9771  -43.2029 C   0  0  0  0  0  0  0  0  0  0  0  0
  -36.7667    5.4310  -42.7507 C   0  0  0  0  0  0  0  0  0  0  0  0
  -35.5575    5.4528  -41.8508 C   0  0  0  0  0  0  0  0  0  0  0  0
  -34.2977    5.7152  -42.5832 N   0  0  0  0  0  0  0  0  0  0  0  0
  -34.1959    4.9970  -43.8703 C   0  0  0  0  0  0  0  0  0  0  0  0
  -34.7081    3.5826  -43.7673 C   0  0  0  0  0  0  0  0  0  0  0  0
  -34.0514    7.3939  -42.7970 X   0  0  0  0  0  0  0  0  0  0  0  0
  1  2  1  0  0  0  0
  2  3  1  0  0  0  0
  2  4  1  0  0  0  0
  4  5  1  0  0  0  0
  5  6  1  0  0  0  0
  5 11  1  0  0  0  0
  6  7  1  0  0  0  0
  7  8  1  0  0  0  0
  8  9  1  0  0  0  0
  9 10  1  0  0  0  0
  9 12  1  0  0  0  0
 10 11  1  0  0  0  0
M  END
> <Index>
22348

> <PropertyFieldDistance>
nan

$$$$
15508648
BBcorina  12272117083D 1   1.00000     0.00000 
CORINA 4.3.0 0026  30.10.2019
 12 13  0  0  0  0  0  0  0  0999 V2000
  -38.7012    2.5832  -44.4543 N   0  0  0  0  0  0  0  0  0  0  0  0
  -38.1260    3.2450  -43.2758 C   0  0  0  0  0  0  0  0  0  0  0  0
  -37.1133    4.2997  -43.7266 C   0  0  0  0  0  0  0  0  0  0  0  0
  -36.6040    5.0768  -42.5078 C   0  0  0  0  0  0  0  0  0  0  0  0
  -35.4227    5.9595  -42.9216 C   0  0  0  0  0  0  0  0  0  0  0  0
  -34.2166    5.0694  -43.2475 C   0  0  0  0  0  0  0  0  0  0  0  0
  -34.6773    3.9722  -44.1777 C   0  0  0  0  0  0  0  0  0  0  0  0
  -33.9353    3.1934  -44.9093 N   0  0  0  0  0  0  0  0  0  0  0  0
  -34.7231    2.3510  -45.5972 C   0  0  0  0  0  0  0  0  0  0  0  0
  -36.0048    2.6206  -45.2764 C   0  0  0  0  0  0  0  0  0  0  0  0
  -35.9761    3.6455  -44.3781 N   0  0  0  0  0  0  0  0  0  0  0  0
  -39.8409    1.3943  -43.9943 X   0  0  0  0  0  0  0  0  0  0  0  0
  1  2  1  0  0  0  0
  1 12  1  0  0  0  0
  2  3  1  0  0  0  0
  3  4  1  0  0  0  0
  3 11  1  0  0  0  0
  4  5  1  0  0  0  0
  5  6  1  0  0  0  0
  6  7  1  0  0  0  0
  7  8  2  0  0  0  0
  7 11  1  0  0  0  0
  8  9  1  0  0  0  0
  9 10  2  0  0  0  0
 10 11  1  0  0  0  0
M  END
> <Index>
22351

> <PropertyFieldDistance>
nan

$$$$
15759208
BBcorina  12272117083D 1   1.00000     0.00000 
CORINA 4.3.0 0026  30.10.2019
 12 13  0  0  0  0  0  0  0  0999 V2000
  -32.5929    4.8497  -43.2450 O   0  0  0  0  0  0  0  0  0  0  0  0
  -33.9429    5.1056  -43.6376 C   0  0  0  0  0  0  0  0  0  0  0  0
  -34.6465    5.8770  -42.5657 C   0  0  0  0  0  0  0  0  0  0  0  0
  -36.0959    6.2002  -42.8671 C   0  0  0  0  0  0  0  0  0  0  0  0
  -36.8975    5.0396  -42.4222 C   0  0  0  0  0  0  0  0  0  0  0  0
  -38.1743    5.5032  -41.9785 O   0  0  0  0  0  0  0  0  0  0  0  0
  -37.0963    4.0361  -43.6048 C   0  0  0  0  0  0  0  0  0  0  0  0
  -36.6603    2.7213  -42.8372 C   0  0  0  0  0  0  0  0  0  0  0  0
  -35.1570    3.0438  -42.5628 C   0  0  0  0  0  0  0  0  0  0  0  0
  -34.7040    3.7621  -43.8200 C   0  0  0  0  0  0  0  0  0  0  0  0
  -35.9467    4.1201  -44.5532 N   0  0  0  0  0  0  0  0  0  0  0  0
  -36.2014    3.1183  -45.9153 X   0  0  0  0  0  0  0  0  0  0  0  0
  1  2  1  0  0  0  0
  2  3  1  0  0  0  0
  2 10  1  0  0  0  0
  3  4  1  0  0  0  0
  4  5  1  0  0  0  0
  5  6  1  0  0  0  0
  5  7  1  0  0  0  0
  7  8  1  0  0  0  0
  7 11  1  0  0  0  0
  8  9  1  0  0  0  0
  9 10  1  0  0  0  0
 10 11  1  0  0  0  0
 11 12  1  0  0  0  0
M  END
> <Index>
22360

> <PropertyFieldDistance>
nan

$$$$
15733156
BBcorina  12272117083D 1   1.00000     0.00000 
CORINA 4.3.0 0026  30.10.2019
 11 12  0  0  0  0  0  0  0  0999 V2000
  -35.9489    3.4663  -44.1731 N   0  0  0  0  0  0  0  0  0  0  0  0
  -37.0259    4.3919  -43.7994 C   0  0  0  0  0  0  0  0  0  0  0  0
  -36.6596    5.1069  -42.4970 C   0  0  0  0  0  0  0  0  0  0  0  0
  -35.3523    5.8802  -42.6962 C   0  0  0  0  0  0  0  0  0  0  0  0
  -34.2605    4.9118  -43.1480 C   0  0  0  0  0  0  0  0  0  0  0  0
  -34.6924    4.1866  -44.4202 C   0  0  0  0  0  0  0  0  0  0  0  0
  -33.9907    3.9584  -42.1072 O   0  0  0  0  0  0  0  0  0  0  0  0
  -32.9132    4.5616  -41.3644 C   0  0  0  0  0  0  0  0  0  0  0  0
  -32.1848    5.4510  -42.3465 C   0  0  0  0  0  0  0  0  0  0  0  0
  -32.9683    5.6541  -43.3811 C   0  0  0  0  0  0  0  0  0  0  0  0
  -36.3928    2.5253  -45.5301 X   0  0  0  0  0  0  0  0  0  0  0  0
  1  2  1  0  0  0  0
  1  6  1  0  0  0  0
  1 11  1  0  0  0  0
  2  3  1  0  0  0  0
  3  4  1  0  0  0  0
  4  5  1  0  0  0  0
  5  6  1  0  0  0  0
  5  7  1  0  0  0  0
  5 10  1  0  0  0  0
  7  8  1  0  0  0  0
  8  9  1  0  0  0  0
  9 10  2  0  0  0  0
M  END
> <Index>
22368

> <PropertyFieldDistance>
nan

$$$$
16625100
BBcorina  12272117083D 1   1.00000     0.00000 
CORINA 4.3.0 0026  30.10.2019
 10 11  0  0  0  0  0  0  0  0999 V2000
  -36.3989    1.6535  -45.9354 N   0  0  0  0  0  0  0  0  0  0  0  0
  -36.0151    2.8995  -45.2586 C   0  0  0  0  0  0  0  0  0  0  0  0
  -34.6286    2.7559  -44.6007 C   0  0  0  0  0  0  0  0  0  0  0  0
  -34.6214    3.8172  -43.4801 C   0  0  0  0  0  0  0  0  0  0  0  0
  -33.8120    3.2749  -42.2854 C   0  0  0  0  0  0  0  0  0  0  0  0
  -34.7502    3.9064  -40.8350 S   0  0  0  0  0  0  0  0  0  0  0  0
  -36.4055    3.7309  -41.6543 C   0  0  0  0  0  0  0  0  0  0  0  0
  -36.0884    4.0751  -43.1231 C   0  0  0  0  0  0  0  0  0  0  0  0
  -36.9354    3.1693  -44.0418 C   0  0  0  0  0  0  0  0  0  0  0  0
  -36.0441    1.7295  -47.6065 X   0  0  0  0  0  0  0  0  0  0  0  0
  1  2  1  0  0  0  0
  1 10  1  0  0  0  0
  2  3  1  0  0  0  0
  2  9  1  0  0  0  0
  3  4  1  0  0  0  0
  4  5  1  0  0  0  0
  4  8  1  0  0  0  0
  5  6  1  0  0  0  0
  6  7  1  0  0  0  0
  7  8  1  0  0  0  0
  8  9  1  0  0  0  0
M  END
> <Index>
22369

> <PropertyFieldDistance>
nan

$$$$
16608430
BBcorina  12272117083D 1   1.00000     0.00000 
CORINA 4.3.0 0026  30.10.2019
 10 11  0  0  0  0  0  0  0  0999 V2000
  -37.6588    4.8135  -41.4684 N   0  0  0  0  0  0  0  0  0  0  0  0
  -36.6565    5.1096  -42.5008 C   0  0  0  0  0  0  0  0  0  0  0  0
  -37.0287    4.3880  -43.7993 C   0  0  0  0  0  0  0  0  0  0  0  0
  -35.9478    3.4651  -44.1708 N   0  0  0  0  0  0  0  0  0  0  0  0
  -34.6962    4.1923  -44.4237 C   0  0  0  0  0  0  0  0  0  0  0  0
  -34.2580    4.9085  -43.1431 C   0  0  0  0  0  0  0  0  0  0  0  0
  -35.2801    4.6162  -42.0374 C   0  0  0  0  0  0  0  0  0  0  0  0
  -35.3504    3.0987  -41.8247 C   0  0  0  0  0  0  0  0  0  0  0  0
  -35.7579    2.4331  -43.1422 C   0  0  0  0  0  0  0  0  0  0  0  0
  -38.9183    5.9699  -41.4875 X   0  0  0  0  0  0  0  0  0  0  0  0
  1  2  1  0  0  0  0
  1 10  1  0  0  0  0
  2  3  1  0  0  0  0
  2  7  1  0  0  0  0
  3  4  1  0  0  0  0
  4  5  1  0  0  0  0
  4  9  1  0  0  0  0
  5  6  1  0  0  0  0
  6  7  1  0  0  0  0
  7  8  1  0  0  0  0
  8  9  1  0  0  0  0
M  END
> <Index>
22413

> <PropertyFieldDistance>
nan

$$$$
15759488
BBcorina  12272117083D 1   1.00000     0.00000 
CORINA 4.3.0 0026  30.10.2019
 10 11  0  0  0  0  0  0  0  0999 V2000
  -35.9417    3.8884  -44.6578 N   0  0  0  0  0  0  0  0  0  0  0  0
  -37.1572    4.0168  -43.8203 C   0  0  0  0  0  0  0  0  0  0  0  0
  -36.3204    4.9454  -42.9186 C   0  0  0  0  0  0  0  0  0  0  0  0
  -35.0987    4.2368  -43.5061 C   0  0  0  0  0  0  0  0  0  0  0  0
  -33.7685    4.9667  -43.6863 C   0  0  0  0  0  0  0  0  0  0  0  0
  -33.3033    4.2524  -42.4042 C   0  0  0  0  0  0  0  0  0  0  0  0
  -34.3476    3.1646  -42.7151 C   0  0  0  0  0  0  0  0  0  0  0  0
  -31.9139    3.7706  -42.4698 C   0  0  0  0  0  0  0  0  0  0  0  0
  -30.8058    3.3863  -42.5221 C   0  0  0  0  0  0  0  0  0  0  0  0
  -35.6921    2.2642  -45.1310 X   0  0  0  0  0  0  0  0  0  0  0  0
  1  2  1  0  0  0  0
  1  4  1  0  0  0  0
  1 10  1  0  0  0  0
  2  3  1  0  0  0  0
  3  4  1  0  0  0  0
  4  5  1  0  0  0  0
  4  7  1  0  0  0  0
  5  6  1  0  0  0  0
  6  7  1  0  0  0  0
  6  8  1  0  0  0  0
  8  9  3  0  0  0  0
M  END
> <Index>
22423

> <PropertyFieldDistance>
nan

$$$$
17541892
BBcorina  12272117083D 1   1.00000     0.00000 
CORINA 4.3.0 0026  30.10.2019
 10 10  0  0  0  0  0  0  0  0999 V2000
  -32.0035    5.2881  -44.0166 N   0  0  0  0  0  0  0  0  0  0  0  0
  -32.8589    5.0723  -42.8420 C   0  0  0  0  0  0  0  0  0  0  0  0
  -34.3267    5.0703  -43.2735 C   0  0  0  0  0  0  0  0  0  0  0  0
  -35.2262    4.9500  -42.0374 C   0  0  0  0  0  0  0  0  0  0  0  0
  -36.6806    5.1343  -42.4780 C   0  0  0  0  0  0  0  0  0  0  0  0
  -36.9694    4.2612  -43.6653 C   0  0  0  0  0  0  0  0  0  0  0  0
  -38.1280    4.0338  -43.9421 O   0  0  0  0  0  0  0  0  0  0  0  0
  -36.0200    3.7232  -44.4315 N   0  0  0  0  0  0  0  0  0  0  0  0
  -34.5906    3.8745  -44.1894 C   0  0  0  0  0  0  0  0  0  0  0  0
  -30.3508    5.2974  -43.5777 X   0  0  0  0  0  0  0  0  0  0  0  0
  1  2  1  0  0  0  0
  1 10  1  0  0  0  0
  2  3  1  0  0  0  0
  3  4  1  0  0  0  0
  3  9  1  0  0  0  0
  4  5  1  0  0  0  0
  5  6  1  0  0  0  0
  6  7  2  0  0  0  0
  6  8  1  0  0  0  0
  8  9  1  0  0  0  0
M  END
> <Index>
22434

> <PropertyFieldDistance>
nan

$$$$
16514782
BBcorina  12272117083D 1   1.00000     0.00000 
CORINA 4.3.0 0026  30.10.2019
 10 10  0  0  0  0  0  0  0  0999 V2000
  -31.8591    4.8791  -43.1441 C   0  0  0  0  0  0  0  0  0  0  0  0
  -33.0483    5.6311  -43.3939 O   0  0  0  0  0  0  0  0  0  0  0  0
  -34.2558    4.9088  -43.1443 C   0  0  0  0  0  0  0  0  0  0  0  0
  -35.3535    5.8832  -42.7080 C   0  0  0  0  0  0  0  0  0  0  0  0
  -36.6586    5.1099  -42.5007 C   0  0  0  0  0  0  0  0  0  0  0  0
  -37.7018    6.0206  -42.1475 O   0  0  0  0  0  0  0  0  0  0  0  0
  -37.0290    4.3869  -43.7977 C   0  0  0  0  0  0  0  0  0  0  0  0
  -35.9480    3.4664  -44.1723 N   0  0  0  0  0  0  0  0  0  0  0  0
  -34.6958    4.1916  -44.4226 C   0  0  0  0  0  0  0  0  0  0  0  0
  -36.3900    2.5211  -45.5269 X   0  0  0  0  0  0  0  0  0  0  0  0
  1  2  1  0  0  0  0
  2  3  1  0  0  0  0
  3  4  1  0  0  0  0
  3  9  1  0  0  0  0
  4  5  1  0  0  0  0
  5  6  1  0  0  0  0
  5  7  1  0  0  0  0
  7  8  1  0  0  0  0
  8  9  1  0  0  0  0
  8 10  1  0  0  0  0
M  END
> <Index>
22448

> <PropertyFieldDistance>
nan

$$$$
16624900
BBcorina  12272117083D 1   1.00000     0.00000 
CORINA 4.3.0 0026  30.10.2019
 10 11  0  0  0  0  0  0  0  0999 V2000
  -36.4325    4.4819  -41.1452 O   0  0  0  0  0  0  0  0  0  0  0  0
  -36.8296    4.2714  -42.5017 C   0  0  0  0  0  0  0  0  0  0  0  0
  -35.6149    3.8448  -43.3284 C   0  0  0  0  0  0  0  0  0  0  0  0
  -35.1669    2.4131  -42.9374 C   0  0  0  0  0  0  0  0  0  0  0  0
  -34.4098    1.9364  -44.2018 C   0  0  0  0  0  0  0  0  0  0  0  0
  -33.0404    2.4680  -44.2120 N   0  0  0  0  0  0  0  0  0  0  0  0
  -35.2237    2.5186  -45.3758 C   0  0  0  0  0  0  0  0  0  0  0  0
  -36.7506    2.4875  -45.2827 C   0  0  0  0  0  0  0  0  0  0  0  0
  -35.9899    3.7320  -44.8205 C   0  0  0  0  0  0  0  0  0  0  0  0
  -33.0468    4.1769  -44.2713 X   0  0  0  0  0  0  0  0  0  0  0  0
  1  2  1  0  0  0  0
  2  3  1  0  0  0  0
  3  4  1  0  0  0  0
  3  9  1  0  0  0  0
  4  5  1  0  0  0  0
  5  6  1  0  0  0  0
  5  7  1  0  0  0  0
  6 10  1  0  0  0  0
  7  8  1  0  0  0  0
  7  9  1  0  0  0  0
  8  9  1  0  0  0  0
M  END
> <Index>
22450

> <PropertyFieldDistance>
nan

$$$$
16638330
BBcorina  12272117083D 1   1.00000     0.00000 
CORINA 4.3.0 0026  30.10.2019
  9  9  0  0  0  0  0  0  0  0999 V2000
  -38.1278    5.4714  -41.7939 C   0  0  0  0  0  0  0  0  0  0  0  0
  -36.8500    5.2392  -42.6028 C   0  0  0  0  0  0  0  0  0  0  0  0
  -37.1198    4.1352  -43.6444 C   0  0  0  0  0  0  0  0  0  0  0  0
  -35.8606    3.5512  -44.1729 N   0  0  0  0  0  0  0  0  0  0  0  0
  -34.8261    4.5204  -44.4336 C   0  0  0  0  0  0  0  0  0  0  0  0
  -33.9308    4.6176  -43.1841 C   0  0  0  0  0  0  0  0  0  0  0  0
  -34.5331    5.4500  -42.1428 C   0  0  0  0  0  0  0  0  0  0  0  0
  -35.8105    4.9217  -41.7205 O   0  0  0  0  0  0  0  0  0  0  0  0
  -36.1633    2.5898  -45.5543 X   0  0  0  0  0  0  0  0  0  0  0  0
  1  2  1  0  0  0  0
  2  3  1  0  0  0  0
  2  8  1  0  0  0  0
  3  4  1  0  0  0  0
  4  5  1  0  0  0  0
  4  9  1  0  0  0  0
  5  6  1  0  0  0  0
  6  7  1  0  0  0  0
  7  8  1  0  0  0  0
M  END
> <Index>
22471

> <PropertyFieldDistance>
nan

$$$$
16511318
BBcorina  12272117083D 1   1.00000     0.00000 
CORINA 4.3.0 0026  30.10.2019
  9  9  0  0  0  0  0  0  0  0999 V2000
  -37.8218    6.5556  -40.9692 C   0  0  0  0  0  0  0  0  0  0  0  0
  -37.3281    5.2883  -41.4073 O   0  0  0  0  0  0  0  0  0  0  0  0
  -36.7076    5.3194  -42.6942 C   0  0  0  0  0  0  0  0  0  0  0  0
  -36.8972    3.9659  -43.3839 C   0  0  0  0  0  0  0  0  0  0  0  0
  -36.0369    3.9263  -44.5781 N   0  0  0  0  0  0  0  0  0  0  0  0
  -34.6232    3.8803  -44.1838 C   0  0  0  0  0  0  0  0  0  0  0  0
  -34.3224    4.9716  -43.1976 C   0  0  0  0  0  0  0  0  0  0  0  0
  -35.2409    5.6066  -42.5353 C   0  0  0  0  0  0  0  0  0  0  0  0
  -36.4377    2.5985  -45.5784 X   0  0  0  0  0  0  0  0  0  0  0  0
  1  2  1  0  0  0  0
  2  3  1  0  0  0  0
  3  4  1  0  0  0  0
  3  8  1  0  0  0  0
  4  5  1  0  0  0  0
  5  6  1  0  0  0  0
  5  9  1  0  0  0  0
  6  7  1  0  0  0  0
  7  8  2  0  0  0  0
M  END
> <Index>
22486

> <PropertyFieldDistance>
nan

$$$$
16514954
BBcorina  12272117083D 1   1.00000     0.00000 
CORINA 4.3.0 0026  30.10.2019
 10 10  0  0  0  0  0  0  0  0999 V2000
  -31.8591    4.8791  -43.1441 C   0  0  0  0  0  0  0  0  0  0  0  0
  -33.0483    5.6311  -43.3939 O   0  0  0  0  0  0  0  0  0  0  0  0
  -34.2558    4.9088  -43.1443 C   0  0  0  0  0  0  0  0  0  0  0  0
  -35.3535    5.8832  -42.7080 C   0  0  0  0  0  0  0  0  0  0  0  0
  -36.6586    5.1099  -42.5007 C   0  0  0  0  0  0  0  0  0  0  0  0
  -37.7018    6.0206  -42.1475 O   0  0  0  0  0  0  0  0  0  0  0  0
  -37.0290    4.3869  -43.7977 C   0  0  0  0  0  0  0  0  0  0  0  0
  -35.9480    3.4664  -44.1723 N   0  0  0  0  0  0  0  0  0  0  0  0
  -34.6958    4.1916  -44.4226 C   0  0  0  0  0  0  0  0  0  0  0  0
  -36.3900    2.5211  -45.5269 X   0  0  0  0  0  0  0  0  0  0  0  0
  1  2  1  0  0  0  0
  2  3  1  0  0  0  0
  3  4  1  0  0  0  0
  3  9  1  0  0  0  0
  4  5  1  0  0  0  0
  5  6  1  0  0  0  0
  5  7  1  0  0  0  0
  7  8  1  0  0  0  0
  8  9  1  0  0  0  0
  8 10  1  0  0  0  0
M  END
> <Index>
22517

> <PropertyFieldDistance>
nan

$$$$
16466114
BBcorina  12272117083D 1   1.00000     0.00000 
CORINA 4.3.0 0026  30.10.2019
 14 15  0  0  0  0  0  0  0  0999 V2000
  -36.0029    3.5620  -44.2970 N   0  0  0  0  0  0  0  0  0  0  0  0
  -36.9612    4.5751  -43.8260 C   0  0  0  0  0  0  0  0  0  0  0  0
  -36.6474    4.9069  -42.3660 C   0  0  0  0  0  0  0  0  0  0  0  0
  -35.2267    5.2083  -42.2154 N   0  0  0  0  0  0  0  0  0  0  0  0
  -34.3094    4.8591  -43.1235 C   0  0  0  0  0  0  0  0  0  0  0  0
  -33.1465    5.1260  -42.9068 O   0  0  0  0  0  0  0  0  0  0  0  0
  -34.6583    4.1449  -44.3985 C   0  0  0  0  0  0  0  0  0  0  0  0
  -34.8103    5.8937  -41.0809 C   0  0  0  0  0  0  0  0  0  0  0  0
  -33.5249    6.1740  -40.9310 N   0  0  0  0  0  0  0  0  0  0  0  0
  -33.0948    6.8254  -39.8631 C   0  0  0  0  0  0  0  0  0  0  0  0
  -34.0080    7.2148  -38.8957 C   0  0  0  0  0  0  0  0  0  0  0  0
  -35.3457    6.9049  -39.0848 C   0  0  0  0  0  0  0  0  0  0  0  0
  -35.7083    6.2510  -40.1760 N   0  0  0  0  0  0  0  0  0  0  0  0
  -36.0022    2.1948  -43.2699 X   0  0  0  0  0  0  0  0  0  0  0  0
  1  2  1  0  0  0  0
  1  7  1  0  0  0  0
  1 14  1  0  0  0  0
  2  3  1  0  0  0  0
  3  4  1  0  0  0  0
  4  5  1  0  0  0  0
  4  8  1  0  0  0  0
  5  6  2  0  0  0  0
  5  7  1  0  0  0  0
  8  9  2  0  0  0  0
  8 13  1  0  0  0  0
  9 10  1  0  0  0  0
 10 11  2  0  0  0  0
 11 12  1  0  0  0  0
 12 13  2  0  0  0  0
M  END
> <Index>
22524

> <PropertyFieldDistance>
nan

$$$$
16712412
BBcorina  12272117083D 1   1.00000     0.00000 
CORINA 4.3.0 0026  30.10.2019
 16 16  0  0  0  0  0  0  0  0999 V2000
  -31.4669   -1.7233  -45.2475 C   0  0  0  0  0  0  0  0  0  0  0  0
  -32.6921   -0.8927  -44.1989 S   0  0  0  0  0  0  0  0  0  0  0  0
  -33.6699    0.0621  -45.3917 C   0  0  0  0  0  0  0  0  0  0  0  0
  -34.7651    0.8332  -44.6523 C   0  0  0  0  0  0  0  0  0  0  0  0
  -35.5898    1.6385  -45.6584 C   0  0  0  0  0  0  0  0  0  0  0  0
  -36.3008    0.7188  -46.5565 N   0  0  0  0  0  0  0  0  0  0  0  0
  -36.5886    2.4921  -44.9203 C   0  0  0  0  0  0  0  0  0  0  0  0
  -37.7436    2.1332  -44.8298 O   0  0  0  0  0  0  0  0  0  0  0  0
  -36.1972    3.6518  -44.3560 N   0  0  0  0  0  0  0  0  0  0  0  0
  -37.1543    4.4970  -43.6260 C   0  0  0  0  0  0  0  0  0  0  0  0
  -36.5625    4.8273  -42.2516 C   0  0  0  0  0  0  0  0  0  0  0  0
  -35.2254    5.4104  -42.4252 N   0  0  0  0  0  0  0  0  0  0  0  0
  -34.6939    5.8988  -41.1457 C   0  0  0  0  0  0  0  0  0  0  0  0
  -34.3024    4.4514  -43.0469 C   0  0  0  0  0  0  0  0  0  0  0  0
  -34.8003    4.1027  -44.4486 C   0  0  0  0  0  0  0  0  0  0  0  0
  -37.3532   -0.3038  -45.6785 X   0  0  0  0  0  0  0  0  0  0  0  0
  1  2  1  0  0  0  0
  2  3  1  0  0  0  0
  3  4  1  0  0  0  0
  4  5  1  0  0  0  0
  5  6  1  0  0  0  0
  5  7  1  0  0  0  0
  6 16  1  0  0  0  0
  7  8  2  0  0  0  0
  7  9  1  0  0  0  0
  9 10  1  0  0  0  0
  9 15  1  0  0  0  0
 10 11  1  0  0  0  0
 11 12  1  0  0  0  0
 12 13  1  0  0  0  0
 12 14  1  0  0  0  0
 14 15  1  0  0  0  0
M  END
> <Index>
22534

> <PropertyFieldDistance>
nan

$$$$
16630658
BBcorina  12272117083D 1   1.00000     0.00000 
CORINA 4.3.0 0026  30.10.2019
 14 15  0  0  0  0  0  0  0  0999 V2000
  -37.3795   -1.1669  -44.1053 C   0  0  0  0  0  0  0  0  0  0  0  0
  -36.8932    0.1487  -44.6566 C   0  0  0  0  0  0  0  0  0  0  0  0
  -36.7903    1.3467  -43.9438 C   0  0  0  0  0  0  0  0  0  0  0  0
  -36.3160    2.2981  -44.7948 C   0  0  0  0  0  0  0  0  0  0  0  0
  -36.0712    3.6325  -44.4826 N   0  0  0  0  0  0  0  0  0  0  0  0
  -37.0953    4.1558  -43.5528 C   0  0  0  0  0  0  0  0  0  0  0  0
  -36.3914    5.1657  -42.6275 C   0  0  0  0  0  0  0  0  0  0  0  0
  -34.9103    5.1550  -43.0704 C   0  0  0  0  0  0  0  0  0  0  0  0
  -34.7711    3.7851  -43.7808 C   0  0  0  0  0  0  0  0  0  0  0  0
  -34.0188    5.2294  -41.9053 N   0  0  0  0  0  0  0  0  0  0  0  0
  -36.1205    1.7097  -45.9968 N   0  0  0  0  0  0  0  0  0  0  0  0
  -35.6123    2.3646  -47.2047 C   0  0  0  0  0  0  0  0  0  0  0  0
  -36.4899    0.3635  -45.8825 N   0  0  0  0  0  0  0  0  0  0  0  0
  -34.2190    3.8663  -40.8923 X   0  0  0  0  0  0  0  0  0  0  0  0
  1  2  1  0  0  0  0
  2  3  1  0  0  0  0
  2 13  2  0  0  0  0
  3  4  2  0  0  0  0
  4  5  1  0  0  0  0
  4 11  1  0  0  0  0
  5  6  1  0  0  0  0
  5  9  1  0  0  0  0
  6  7  1  0  0  0  0
  7  8  1  0  0  0  0
  8  9  1  0  0  0  0
  8 10  1  0  0  0  0
 10 14  1  0  0  0  0
 11 12  1  0  0  0  0
 11 13  1  0  0  0  0
M  END
> <Index>
22550

> <PropertyFieldDistance>
nan

$$$$
16608486
BBcorina  12272117083D 1   1.00000     0.00000 
CORINA 4.3.0 0026  30.10.2019
 16 17  0  0  0  0  0  0  0  0999 V2000
  -32.9161    5.1800  -42.9841 N   0  0  0  0  0  0  0  0  0  0  0  0
  -34.3116    5.1260  -43.4400 C   0  0  0  0  0  0  0  0  0  0  0  0
  -35.2424    5.4951  -42.2816 C   0  0  0  0  0  0  0  0  0  0  0  0
  -36.6960    5.3791  -42.7485 C   0  0  0  0  0  0  0  0  0  0  0  0
  -36.9542    3.9558  -43.2483 C   0  0  0  0  0  0  0  0  0  0  0  0
  -36.0397    3.6513  -44.3562 N   0  0  0  0  0  0  0  0  0  0  0  0
  -34.6388    3.7102  -43.9198 C   0  0  0  0  0  0  0  0  0  0  0  0
  -36.3344    2.4152  -44.9202 C   0  0  0  0  0  0  0  0  0  0  0  0
  -36.1991    1.2554  -44.1690 C   0  0  0  0  0  0  0  0  0  0  0  0
  -36.4932    0.0291  -44.7308 C   0  0  0  0  0  0  0  0  0  0  0  0
  -36.9240   -0.0553  -46.0447 C   0  0  0  0  0  0  0  0  0  0  0  0
  -37.0641    1.0850  -46.8062 C   0  0  0  0  0  0  0  0  0  0  0  0
  -36.7709    2.3333  -46.2520 C   0  0  0  0  0  0  0  0  0  0  0  0
  -36.9150    3.5220  -47.0374 C   0  0  0  0  0  0  0  0  0  0  0  0
  -37.0293    4.4650  -47.6605 N   0  0  0  0  0  0  0  0  0  0  0  0
  -32.6217    4.0103  -41.7720 X   0  0  0  0  0  0  0  0  0  0  0  0
  1  2  1  0  0  0  0
  1 16  1  0  0  0  0
  2  3  1  0  0  0  0
  2  7  1  0  0  0  0
  3  4  1  0  0  0  0
  4  5  1  0  0  0  0
  5  6  1  0  0  0  0
  6  7  1  0  0  0  0
  6  8  1  0  0  0  0
  8  9  2  0  0  0  0
  8 13  1  0  0  0  0
  9 10  1  0  0  0  0
 10 11  2  0  0  0  0
 11 12  1  0  0  0  0
 12 13  2  0  0  0  0
 13 14  1  0  0  0  0
 14 15  3  0  0  0  0
M  END
> <Index>
22554

> <PropertyFieldDistance>
nan

$$$$
16608488
BBcorina  12272117083D 1   1.00000     0.00000 
CORINA 4.3.0 0026  30.10.2019
 14 14  0  0  0  0  0  0  0  0999 V2000
  -33.9429    7.8858  -42.9264 C   0  0  0  0  0  0  0  0  0  0  0  0
  -35.0862    7.1189  -42.4138 N   0  0  0  0  0  0  0  0  0  0  0  0
  -35.4418    6.0277  -43.3307 C   0  0  0  0  0  0  0  0  0  0  0  0
  -36.7095    5.3305  -42.8292 C   0  0  0  0  0  0  0  0  0  0  0  0
  -37.0403    4.1570  -43.7542 C   0  0  0  0  0  0  0  0  0  0  0  0
  -35.9153    3.2133  -43.7714 N   0  0  0  0  0  0  0  0  0  0  0  0
  -36.2517    2.0070  -44.5393 C   0  0  0  0  0  0  0  0  0  0  0  0
  -36.1729    2.3166  -46.0357 C   0  0  0  0  0  0  0  0  0  0  0  0
  -34.8460    2.5874  -46.3866 F   0  0  0  0  0  0  0  0  0  0  0  0
  -36.6325    1.2145  -46.7646 F   0  0  0  0  0  0  0  0  0  0  0  0
  -36.9683    3.4309  -46.3239 F   0  0  0  0  0  0  0  0  0  0  0  0
  -34.6983    3.8476  -44.2940 C   0  0  0  0  0  0  0  0  0  0  0  0
  -34.2975    5.0118  -43.3851 C   0  0  0  0  0  0  0  0  0  0  0  0
  -34.7685    6.5209  -40.8435 X   0  0  0  0  0  0  0  0  0  0  0  0
  1  2  1  0  0  0  0
  2  3  1  0  0  0  0
  2 14  1  0  0  0  0
  3  4  1  0  0  0  0
  3 13  1  0  0  0  0
  4  5  1  0  0  0  0
  5  6  1  0  0  0  0
  6  7  1  0  0  0  0
  6 12  1  0  0  0  0
  7  8  1  0  0  0  0
  8  9  1  0  0  0  0
  8 10  1  0  0  0  0
  8 11  1  0  0  0  0
 12 13  1  0  0  0  0
M  END
> <Index>
22556

> <PropertyFieldDistance>
nan

$$$$
16655490
BBcorina  12272117083D 1   1.00000     0.00000 
CORINA 4.3.0 0026  30.10.2019
 11 11  0  0  0  0  0  0  0  0999 V2000
  -34.6022    1.1903  -45.0557 C   0  0  0  0  0  0  0  0  0  0  0  0
  -36.1841    1.8966  -44.5179 S   0  0  0  0  0  0  0  0  0  0  0  0
  -36.7341    1.2991  -43.3518 O   0  0  0  0  0  0  0  0  0  0  0  0
  -37.1683    1.7468  -45.6313 N   0  0  0  0  0  0  0  0  0  0  0  0
  -35.9598    3.5100  -44.2200 N   0  0  0  0  0  0  0  0  0  0  0  0
  -37.0728    4.3583  -43.7649 C   0  0  0  0  0  0  0  0  0  0  0  0
  -36.6138    5.1342  -42.5250 C   0  0  0  0  0  0  0  0  0  0  0  0
  -35.3842    5.8027  -42.8167 O   0  0  0  0  0  0  0  0  0  0  0  0
  -34.3008    4.9245  -43.1312 C   0  0  0  0  0  0  0  0  0  0  0  0
  -34.6401    4.1366  -44.3966 C   0  0  0  0  0  0  0  0  0  0  0  0
  -38.7503    2.3738  -45.4643 X   0  0  0  0  0  0  0  0  0  0  0  0
  1  2  1  0  0  0  0
  2  3  2  0  0  0  0
  2  4  2  0  0  0  0
  2  5  1  0  0  0  0
  4 11  1  0  0  0  0
  5  6  1  0  0  0  0
  5 10  1  0  0  0  0
  6  7  1  0  0  0  0
  7  8  1  0  0  0  0
  8  9  1  0  0  0  0
  9 10  1  0  0  0  0
M  END
> <Index>
22557

> <PropertyFieldDistance>
nan

$$$$
16643896
BBcorina  12272117083D 1   1.00000     0.00000 
CORINA 4.3.0 0026  30.10.2019
 11 12  0  0  0  0  0  0  0  0999 V2000
  -36.3481    2.3265  -44.9261 C   0  0  0  0  0  0  0  0  0  0  0  0
  -35.9666    3.3099  -43.9037 N   0  0  0  0  0  0  0  0  0  0  0  0
  -37.0491    4.2778  -43.6739 C   0  0  0  0  0  0  0  0  0  0  0  0
  -36.6365    5.2567  -42.5734 C   0  0  0  0  0  0  0  0  0  0  0  0
  -35.4020    6.0432  -43.0209 C   0  0  0  0  0  0  0  0  0  0  0  0
  -34.2505    5.0653  -43.2803 C   0  0  0  0  0  0  0  0  0  0  0  0
  -34.7240    4.0016  -44.2757 C   0  0  0  0  0  0  0  0  0  0  0  0
  -33.6565    3.1977  -45.0174 C   0  0  0  0  0  0  0  0  0  0  0  0
  -34.4712    4.2583  -45.7612 C   0  0  0  0  0  0  0  0  0  0  0  0
  -35.0152    6.9913  -41.9675 N   0  0  0  0  0  0  0  0  0  0  0  0
  -34.5404    6.1678  -40.5461 X   0  0  0  0  0  0  0  0  0  0  0  0
  1  2  1  0  0  0  0
  2  3  1  0  0  0  0
  2  7  1  0  0  0  0
  3  4  1  0  0  0  0
  4  5  1  0  0  0  0
  5  6  1  0  0  0  0
  5 10  1  0  0  0  0
  6  7  1  0  0  0  0
  7  8  1  0  0  0  0
  7  9  1  0  0  0  0
  8  9  1  0  0  0  0
 10 11  1  0  0  0  0
M  END
> <Index>
22559

> <PropertyFieldDistance>
nan

$$$$
13022854
BBcorina  12272117083D 1   1.00000     0.00000 
CORINA 4.3.0 0026  30.10.2019
 11 12  0  0  0  0  0  0  0  0999 V2000
  -35.9634    3.4667  -44.1584 N   0  0  0  0  0  0  0  0  0  0  0  0
  -36.9753    4.4870  -43.8404 C   0  0  0  0  0  0  0  0  0  0  0  0
  -36.6941    5.0277  -42.4378 C   0  0  0  0  0  0  0  0  0  0  0  0
  -35.2454    5.4211  -42.3201 C   0  0  0  0  0  0  0  0  0  0  0  0
  -34.8612    6.2471  -41.2715 C   0  0  0  0  0  0  0  0  0  0  0  0
  -33.5273    6.6058  -41.1622 C   0  0  0  0  0  0  0  0  0  0  0  0
  -32.6288    6.1295  -42.0977 C   0  0  0  0  0  0  0  0  0  0  0  0
  -33.0301    5.3493  -43.0791 N   0  0  0  0  0  0  0  0  0  0  0  0
  -34.2962    4.9856  -43.2195 C   0  0  0  0  0  0  0  0  0  0  0  0
  -34.6584    4.0967  -44.3816 C   0  0  0  0  0  0  0  0  0  0  0  0
  -35.8718    2.2884  -42.9225 X   0  0  0  0  0  0  0  0  0  0  0  0
  1  2  1  0  0  0  0
  1 10  1  0  0  0  0
  1 11  1  0  0  0  0
  2  3  1  0  0  0  0
  3  4  1  0  0  0  0
  4  5  2  0  0  0  0
  4  9  1  0  0  0  0
  5  6  1  0  0  0  0
  6  7  2  0  0  0  0
  7  8  1  0  0  0  0
  8  9  2  0  0  0  0
  9 10  1  0  0  0  0
M  END
> <Index>
22564

> <PropertyFieldDistance>
nan

$$$$
16738386
BBcorina  12272117083D 1   1.00000     0.00000 
CORINA 4.3.0 0026  30.10.2019
 10 10  0  0  0  0  0  0  0  0999 V2000
  -34.0022    1.7567  -43.7944 C   0  0  0  0  0  0  0  0  0  0  0  0
  -34.0230    3.2866  -43.7860 C   0  0  0  0  0  0  0  0  0  0  0  0
  -32.7105    3.7708  -43.7959 F   0  0  0  0  0  0  0  0  0  0  0  0
  -34.7630    3.7934  -45.0255 C   0  0  0  0  0  0  0  0  0  0  0  0
  -36.1983    3.2638  -45.0146 C   0  0  0  0  0  0  0  0  0  0  0  0
  -36.9145    3.7572  -43.7558 C   0  0  0  0  0  0  0  0  0  0  0  0
  -36.1745    3.2504  -42.5163 C   0  0  0  0  0  0  0  0  0  0  0  0
  -34.7391    3.7800  -42.5272 C   0  0  0  0  0  0  0  0  0  0  0  0
  -38.2926    3.2488  -43.7454 N   0  0  0  0  0  0  0  0  0  0  0  0
  -38.3151    1.5389  -43.7544 X   0  0  0  0  0  0  0  0  0  0  0  0
  1  2  1  0  0  0  0
  2  3  1  0  0  0  0
  2  4  1  0  0  0  0
  2  8  1  0  0  0  0
  4  5  1  0  0  0  0
  5  6  1  0  0  0  0
  6  7  1  0  0  0  0
  6  9  1  0  0  0  0
  7  8  1  0  0  0  0
  9 10  1  0  0  0  0
M  END
> <Index>
22572

> <PropertyFieldDistance>
nan

$$$$
16762254
BBcorina  12272117083D 1   1.00000     0.00000 
CORINA 4.3.0 0026  30.10.2019
 13 14  0  0  0  0  0  0  0  0999 V2000
  -38.9675    1.2271  -47.7195 Br  0  0  0  0  0  0  0  0  0  0  0  0
  -37.5208    1.5719  -46.5517 C   0  0  0  0  0  0  0  0  0  0  0  0
  -36.3815    0.9321  -46.5470 N   0  0  0  0  0  0  0  0  0  0  0  0
  -35.5973    1.4979  -45.5288 N   0  0  0  0  0  0  0  0  0  0  0  0
  -36.3417    2.4792  -44.9765 C   0  0  0  0  0  0  0  0  0  0  0  0
  -37.4979    2.5109  -45.6041 N   0  0  0  0  0  0  0  0  0  0  0  0
  -35.9573    3.3051  -43.9355 N   0  0  0  0  0  0  0  0  0  0  0  0
  -37.0246    4.2568  -43.5968 C   0  0  0  0  0  0  0  0  0  0  0  0
  -36.5922    5.0965  -42.3923 C   0  0  0  0  0  0  0  0  0  0  0  0
  -35.3438    5.8020  -42.7132 N   0  0  0  0  0  0  0  0  0  0  0  0
  -34.2764    4.8503  -43.0521 C   0  0  0  0  0  0  0  0  0  0  0  0
  -34.7088    4.0106  -44.2565 C   0  0  0  0  0  0  0  0  0  0  0  0
  -34.8687    6.8229  -41.4263 X   0  0  0  0  0  0  0  0  0  0  0  0
  1  2  1  0  0  0  0
  2  3  2  0  0  0  0
  2  6  1  0  0  0  0
  3  4  1  0  0  0  0
  4  5  1  0  0  0  0
  5  6  2  0  0  0  0
  5  7  1  0  0  0  0
  7  8  1  0  0  0  0
  7 12  1  0  0  0  0
  8  9  1  0  0  0  0
  9 10  1  0  0  0  0
 10 11  1  0  0  0  0
 10 13  1  0  0  0  0
 11 12  1  0  0  0  0
M  END
> <Index>
22620

> <PropertyFieldDistance>
nan

$$$$
16511428
BBcorina  12272117083D 1   1.00000     0.00000 
CORINA 4.3.0 0026  30.10.2019
 10 11  0  0  0  0  0  0  0  0999 V2000
  -37.6587    5.8629  -41.9488 F   0  0  0  0  0  0  0  0  0  0  0  0
  -36.6116    5.1292  -42.5167 C   0  0  0  0  0  0  0  0  0  0  0  0
  -36.0117    4.0866  -41.5439 C   0  0  0  0  0  0  0  0  0  0  0  0
  -34.5279    3.9457  -41.9302 C   0  0  0  0  0  0  0  0  0  0  0  0
  -34.3005    4.9098  -43.1185 C   0  0  0  0  0  0  0  0  0  0  0  0
  -35.4007    6.0156  -42.9171 C   0  0  0  0  0  0  0  0  0  0  0  0
  -37.0359    4.3737  -43.7894 C   0  0  0  0  0  0  0  0  0  0  0  0
  -35.9521    3.4698  -44.1942 N   0  0  0  0  0  0  0  0  0  0  0  0
  -34.6873    4.1810  -44.4189 C   0  0  0  0  0  0  0  0  0  0  0  0
  -36.3960    2.5589  -45.5716 X   0  0  0  0  0  0  0  0  0  0  0  0
  1  2  1  0  0  0  0
  2  3  1  0  0  0  0
  2  6  1  0  0  0  0
  2  7  1  0  0  0  0
  3  4  1  0  0  0  0
  4  5  1  0  0  0  0
  5  6  1  0  0  0  0
  5  9  1  0  0  0  0
  7  8  1  0  0  0  0
  8  9  1  0  0  0  0
  8 10  1  0  0  0  0
M  END
> <Index>
22625

> <PropertyFieldDistance>
nan

$$$$
16359640
BBcorina  12272117083D 1   1.00000     0.00000 
CORINA 4.3.0 0026  30.10.2019
 12 12  0  0  0  0  0  0  0  0999 V2000
  -36.5013    2.2913  -46.5531 F   0  0  0  0  0  0  0  0  0  0  0  0
  -36.4384    3.8458  -46.1388 S   0  0  0  0  0  0  0  0  0  0  0  0
  -35.3583    4.4121  -46.8682 O   0  0  0  0  0  0  0  0  0  0  0  0
  -37.7700    4.3359  -46.2161 O   0  0  0  0  0  0  0  0  0  0  0  0
  -36.0083    3.9104  -44.5409 N   0  0  0  0  0  0  0  0  0  0  0  0
  -37.0317    4.0432  -43.4951 C   0  0  0  0  0  0  0  0  0  0  0  0
  -36.6794    5.2431  -42.6101 C   0  0  0  0  0  0  0  0  0  0  0  0
  -35.2542    5.0780  -42.0776 C   0  0  0  0  0  0  0  0  0  0  0  0
  -34.2712    5.0373  -43.2499 C   0  0  0  0  0  0  0  0  0  0  0  0
  -34.5967    3.8296  -44.1417 C   0  0  0  0  0  0  0  0  0  0  0  0
  -34.9248    6.2105  -41.2018 N   0  0  0  0  0  0  0  0  0  0  0  0
  -35.1303    7.6980  -42.0200 X   0  0  0  0  0  0  0  0  0  0  0  0
  1  2  1  0  0  0  0
  2  3  2  0  0  0  0
  2  4  2  0  0  0  0
  2  5  1  0  0  0  0
  5  6  1  0  0  0  0
  5 10  1  0  0  0  0
  6  7  1  0  0  0  0
  7  8  1  0  0  0  0
  8  9  1  0  0  0  0
  8 11  1  0  0  0  0
  9 10  1  0  0  0  0
 11 12  1  0  0  0  0
M  END
> <Index>
22653

> <PropertyFieldDistance>
nan

$$$$
16517614
BBcorina  12272117083D 1   1.00000     0.00000 
CORINA 4.3.0 0026  30.10.2019
 13 14  0  0  0  0  0  0  0  0999 V2000
  -34.8898    9.0441  -42.0586 C   0  0  0  0  0  0  0  0  0  0  0  0
  -35.6572    7.7945  -42.1467 N   0  0  0  0  0  0  0  0  0  0  0  0
  -34.9520    6.6892  -41.4591 C   0  0  0  0  0  0  0  0  0  0  0  0
  -35.3476    5.8283  -42.6656 C   0  0  0  0  0  0  0  0  0  0  0  0
  -35.4534    7.1381  -43.4579 C   0  0  0  0  0  0  0  0  0  0  0  0
  -36.6822    5.1063  -42.4937 C   0  0  0  0  0  0  0  0  0  0  0  0
  -37.0323    4.3870  -43.8006 C   0  0  0  0  0  0  0  0  0  0  0  0
  -35.9436    3.4695  -44.1599 N   0  0  0  0  0  0  0  0  0  0  0  0
  -34.6962    4.1954  -44.4299 C   0  0  0  0  0  0  0  0  0  0  0  0
  -34.2330    4.9054  -43.1536 C   0  0  0  0  0  0  0  0  0  0  0  0
  -32.9795    5.7302  -43.4527 C   0  0  0  0  0  0  0  0  0  0  0  0
  -31.9040    4.8546  -43.7971 O   0  0  0  0  0  0  0  0  0  0  0  0
  -36.3826    2.4891  -45.4905 X   0  0  0  0  0  0  0  0  0  0  0  0
  1  2  1  0  0  0  0
  2  3  1  0  0  0  0
  2  5  1  0  0  0  0
  3  4  1  0  0  0  0
  4  5  1  0  0  0  0
  4  6  1  0  0  0  0
  4 10  1  0  0  0  0
  6  7  1  0  0  0  0
  7  8  1  0  0  0  0
  8  9  1  0  0  0  0
  8 13  1  0  0  0  0
  9 10  1  0  0  0  0
 10 11  1  0  0  0  0
 11 12  1  0  0  0  0
M  END
> <Index>
22677

> <PropertyFieldDistance>
nan

$$$$
16712370
BBcorina  12272117083D 1   1.00000     0.00000 
CORINA 4.3.0 0026  30.10.2019
 14 15  0  0  0  0  0  0  0  0999 V2000
  -32.9126    5.1891  -42.9792 N   0  0  0  0  0  0  0  0  0  0  0  0
  -34.3080    5.1368  -43.4352 C   0  0  0  0  0  0  0  0  0  0  0  0
  -35.2385    5.5075  -42.2769 C   0  0  0  0  0  0  0  0  0  0  0  0
  -36.6923    5.3914  -42.7433 C   0  0  0  0  0  0  0  0  0  0  0  0
  -36.9514    3.9683  -43.2428 C   0  0  0  0  0  0  0  0  0  0  0  0
  -36.0372    3.6631  -44.3508 N   0  0  0  0  0  0  0  0  0  0  0  0
  -34.6362    3.7211  -43.9146 C   0  0  0  0  0  0  0  0  0  0  0  0
  -36.3496    2.3570  -44.9464 C   0  0  0  0  0  0  0  0  0  0  0  0
  -37.8427    2.2897  -45.2737 C   0  0  0  0  0  0  0  0  0  0  0  0
  -38.1679    0.9295  -45.8940 C   0  0  0  0  0  0  0  0  0  0  0  0
  -37.3558    0.7471  -47.1777 C   0  0  0  0  0  0  0  0  0  0  0  0
  -35.8626    0.8145  -46.8506 C   0  0  0  0  0  0  0  0  0  0  0  0
  -35.5374    2.1747  -46.2302 C   0  0  0  0  0  0  0  0  0  0  0  0
  -32.2481    6.7467  -43.2172 X   0  0  0  0  0  0  0  0  0  0  0  0
  1  2  1  0  0  0  0
  1 14  1  0  0  0  0
  2  3  1  0  0  0  0
  2  7  1  0  0  0  0
  3  4  1  0  0  0  0
  4  5  1  0  0  0  0
  5  6  1  0  0  0  0
  6  7  1  0  0  0  0
  6  8  1  0  0  0  0
  8  9  1  0  0  0  0
  8 13  1  0  0  0  0
  9 10  1  0  0  0  0
 10 11  1  0  0  0  0
 11 12  1  0  0  0  0
 12 13  1  0  0  0  0
M  END
> <Index>
22681

> <PropertyFieldDistance>
nan

$$$$
17658494
BBcorina  12272117083D 1   1.00000     0.00000 
CORINA 4.3.0 0026  30.10.2019
 11 11  0  0  0  0  0  0  0  0999 V2000
  -35.0835   -0.1120  -47.3061 N   0  0  0  0  0  0  0  0  0  0  0  0
  -36.1528    0.7101  -46.7241 C   0  0  0  0  0  0  0  0  0  0  0  0
  -35.5626    1.6328  -45.6558 C   0  0  0  0  0  0  0  0  0  0  0  0
  -36.6762    2.4890  -45.0496 C   0  0  0  0  0  0  0  0  0  0  0  0
  -36.1095    3.3749  -44.0239 N   0  0  0  0  0  0  0  0  0  0  0  0
  -37.0947    4.3728  -43.5877 C   0  0  0  0  0  0  0  0  0  0  0  0
  -36.5218    5.1812  -42.4215 C   0  0  0  0  0  0  0  0  0  0  0  0
  -35.2318    5.8729  -42.8713 C   0  0  0  0  0  0  0  0  0  0  0  0
  -34.2408    4.8155  -43.3659 C   0  0  0  0  0  0  0  0  0  0  0  0
  -34.8799    4.0177  -44.5048 C   0  0  0  0  0  0  0  0  0  0  0  0
  -35.7015   -1.1602  -48.5075 X   0  0  0  0  0  0  0  0  0  0  0  0
  1  2  1  0  0  0  0
  1 11  1  0  0  0  0
  2  3  1  0  0  0  0
  3  4  1  0  0  0  0
  4  5  1  0  0  0  0
  5  6  1  0  0  0  0
  5 10  1  0  0  0  0
  6  7  1  0  0  0  0
  7  8  1  0  0  0  0
  8  9  1  0  0  0  0
  9 10  1  0  0  0  0
M  END
> <Index>
22701

> <PropertyFieldDistance>
nan

$$$$
11355394
BBcorina  12272117083D 1   1.00000     0.00000 
CORINA 4.3.0 0026  30.10.2019
  9 10  0  0  0  0  0  0  0  0999 V2000
  -35.9210    3.4534  -43.9808 N   0  0  0  0  0  0  0  0  0  0  0  0
  -37.1405    4.2760  -44.1613 C   0  0  0  0  0  0  0  0  0  0  0  0
  -36.2719    5.4839  -43.7582 C   0  0  0  0  0  0  0  0  0  0  0  0
  -35.0808    4.6376  -44.2033 C   0  0  0  0  0  0  0  0  0  0  0  0
  -33.8238    4.7418  -43.3251 C   0  0  0  0  0  0  0  0  0  0  0  0
  -32.6935    4.4872  -44.3585 C   0  0  0  0  0  0  0  0  0  0  0  0
  -33.1800    5.1249  -45.5604 O   0  0  0  0  0  0  0  0  0  0  0  0
  -34.5941    4.8595  -45.6367 C   0  0  0  0  0  0  0  0  0  0  0  0
  -35.7469    2.3277  -45.2562 X   0  0  0  0  0  0  0  0  0  0  0  0
  1  2  1  0  0  0  0
  1  4  1  0  0  0  0
  1  9  1  0  0  0  0
  2  3  1  0  0  0  0
  3  4  1  0  0  0  0
  4  5  1  0  0  0  0
  4  8  1  0  0  0  0
  5  6  1  0  0  0  0
  6  7  1  0  0  0  0
  7  8  1  0  0  0  0
M  END
> <Index>
22705

> <PropertyFieldDistance>
nan

$$$$
13978172
BBcorina  12272117083D 1   1.00000     0.00000 
CORINA 4.3.0 0026  30.10.2019
 11 11  0  0  0  0  0  0  0  0999 V2000
  -31.8793    4.7919  -43.9197 C   0  0  0  0  0  0  0  0  0  0  0  0
  -32.8471    4.9097  -42.7405 C   0  0  0  0  0  0  0  0  0  0  0  0
  -32.4876    6.1413  -41.9068 C   0  0  0  0  0  0  0  0  0  0  0  0
  -34.2770    5.0495  -43.2665 C   0  0  0  0  0  0  0  0  0  0  0  0
  -34.3733    6.2191  -44.0819 O   0  0  0  0  0  0  0  0  0  0  0  0
  -35.2462    5.1675  -42.0869 C   0  0  0  0  0  0  0  0  0  0  0  0
  -36.6793    5.2476  -42.6202 C   0  0  0  0  0  0  0  0  0  0  0  0
  -36.9724    4.0086  -43.4695 C   0  0  0  0  0  0  0  0  0  0  0  0
  -36.0190    3.9415  -44.5844 N   0  0  0  0  0  0  0  0  0  0  0  0
  -34.6396    3.8164  -44.0971 C   0  0  0  0  0  0  0  0  0  0  0  0
  -36.4107    2.6622  -45.6494 X   0  0  0  0  0  0  0  0  0  0  0  0
  1  2  1  0  0  0  0
  2  3  1  0  0  0  0
  2  4  1  0  0  0  0
  4  5  1  0  0  0  0
  4  6  1  0  0  0  0
  4 10  1  0  0  0  0
  6  7  1  0  0  0  0
  7  8  1  0  0  0  0
  8  9  1  0  0  0  0
  9 10  1  0  0  0  0
  9 11  1  0  0  0  0
M  END
> <Index>
22706

> <PropertyFieldDistance>
nan

$$$$
16466194
BBcorina  12272117083D 1   1.00000     0.00000 
CORINA 4.3.0 0026  30.10.2019
 11 12  0  0  0  0  0  0  0  0999 V2000
  -32.5693    3.2479  -45.0853 O   0  0  0  0  0  0  0  0  0  0  0  0
  -33.9300    3.2800  -45.0281 C   0  0  0  0  0  0  0  0  0  0  0  0
  -34.8104    2.5787  -45.8671 C   0  0  0  0  0  0  0  0  0  0  0  0
  -36.0397    2.8586  -45.5051 N   0  0  0  0  0  0  0  0  0  0  0  0
  -35.9856    3.7466  -44.4326 N   0  0  0  0  0  0  0  0  0  0  0  0
  -37.0946    4.3456  -43.6836 C   0  0  0  0  0  0  0  0  0  0  0  0
  -36.5383    4.8998  -42.3659 C   0  0  0  0  0  0  0  0  0  0  0  0
  -35.3581    5.7331  -42.6351 N   0  0  0  0  0  0  0  0  0  0  0  0
  -34.2093    4.9102  -43.0539 C   0  0  0  0  0  0  0  0  0  0  0  0
  -34.6718    3.9912  -44.1564 C   0  0  0  0  0  0  0  0  0  0  0  0
  -34.9620    6.6921  -41.2759 X   0  0  0  0  0  0  0  0  0  0  0  0
  1  2  1  0  0  0  0
  2  3  1  0  0  0  0
  2 10  2  0  0  0  0
  3  4  2  0  0  0  0
  4  5  1  0  0  0  0
  5  6  1  0  0  0  0
  5 10  1  0  0  0  0
  6  7  1  0  0  0  0
  7  8  1  0  0  0  0
  8  9  1  0  0  0  0
  8 11  1  0  0  0  0
  9 10  1  0  0  0  0
M  END
> <Index>
22719

> <PropertyFieldDistance>
nan

$$$$
15497380
BBcorina  12272117083D 1   1.00000     0.00000 
CORINA 4.3.0 0026  30.10.2019
 10 10  0  0  0  0  0  0  0  0999 V2000
  -34.3509   -0.1308  -47.4669 C   0  0  0  0  0  0  0  0  0  0  0  0
  -35.8448   -0.4354  -47.3388 C   0  0  0  0  0  0  0  0  0  0  0  0
  -36.3808    0.1536  -46.0312 C   0  0  0  0  0  0  0  0  0  0  0  0
  -36.1059    1.6538  -45.9847 C   0  0  0  0  0  0  0  0  0  0  0  0
  -36.3933    2.1751  -44.5752 C   0  0  0  0  0  0  0  0  0  0  0  0
  -36.0173    3.5927  -44.4913 N   0  0  0  0  0  0  0  0  0  0  0  0
  -36.9888    2.3988  -46.9854 C   0  0  0  0  0  0  0  0  0  0  0  0
  -36.5289    2.0911  -48.4129 C   0  0  0  0  0  0  0  0  0  0  0  0
  -36.7408    0.3143  -48.7310 S   0  0  0  0  0  0  0  0  0  0  0  0
  -36.3230    4.2164  -42.9288 X   0  0  0  0  0  0  0  0  0  0  0  0
  1  2  1  0  0  0  0
  2  3  1  0  0  0  0
  2  9  1  0  0  0  0
  3  4  1  0  0  0  0
  4  5  1  0  0  0  0
  4  7  1  0  0  0  0
  5  6  1  0  0  0  0
  6 10  1  0  0  0  0
  7  8  1  0  0  0  0
  8  9  1  0  0  0  0
M  END
> <Index>
22729

> <PropertyFieldDistance>
nan

$$$$
16466262
BBcorina  12272117083D 1   1.00000     0.00000 
CORINA 4.3.0 0026  30.10.2019
 13 14  0  0  0  0  0  0  0  0999 V2000
  -36.7987    8.3640  -42.2589 C   0  0  0  0  0  0  0  0  0  0  0  0
  -35.7272    7.8692  -41.3909 N   0  0  0  0  0  0  0  0  0  0  0  0
  -35.1658    8.5308  -40.3322 C   0  0  0  0  0  0  0  0  0  0  0  0
  -34.2191    7.7201  -39.8158 C   0  0  0  0  0  0  0  0  0  0  0  0
  -34.1999    6.5870  -40.5257 N   0  0  0  0  0  0  0  0  0  0  0  0
  -35.1029    6.6578  -41.4808 C   0  0  0  0  0  0  0  0  0  0  0  0
  -35.3909    5.6107  -42.4748 C   0  0  0  0  0  0  0  0  0  0  0  0
  -36.6229    5.1523  -42.5720 C   0  0  0  0  0  0  0  0  0  0  0  0
  -37.0230    4.0814  -43.5459 C   0  0  0  0  0  0  0  0  0  0  0  0
  -36.0022    3.9384  -44.5915 N   0  0  0  0  0  0  0  0  0  0  0  0
  -34.6699    3.7799  -43.9857 C   0  0  0  0  0  0  0  0  0  0  0  0
  -34.2692    5.1116  -43.3426 C   0  0  0  0  0  0  0  0  0  0  0  0
  -36.3647    2.6263  -45.6265 X   0  0  0  0  0  0  0  0  0  0  0  0
  1  2  1  0  0  0  0
  2  3  1  0  0  0  0
  2  6  1  0  0  0  0
  3  4  2  0  0  0  0
  4  5  1  0  0  0  0
  5  6  2  0  0  0  0
  6  7  1  0  0  0  0
  7  8  2  0  0  0  0
  7 12  1  0  0  0  0
  8  9  1  0  0  0  0
  9 10  1  0  0  0  0
 10 11  1  0  0  0  0
 10 13  1  0  0  0  0
 11 12  1  0  0  0  0
M  END
> <Index>
22736

> <PropertyFieldDistance>
nan

$$$$
16803920
BBcorina  12272117083D 1   1.00000     0.00000 
CORINA 4.3.0 0026  30.10.2019
 10 10  0  0  0  0  0  0  0  0999 V2000
  -35.5375    6.8541  -43.6983 F   0  0  0  0  0  0  0  0  0  0  0  0
  -35.3534    5.8832  -42.7080 C   0  0  0  0  0  0  0  0  0  0  0  0
  -34.9458    6.5588  -41.3972 C   0  0  0  0  0  0  0  0  0  0  0  0
  -34.6831    5.1916  -40.0091 Br  0  0  0  0  0  0  0  0  0  0  0  0
  -36.6587    5.1099  -42.5007 C   0  0  0  0  0  0  0  0  0  0  0  0
  -37.0290    4.3869  -43.7977 C   0  0  0  0  0  0  0  0  0  0  0  0
  -35.9479    3.4664  -44.1723 N   0  0  0  0  0  0  0  0  0  0  0  0
  -34.6959    4.1916  -44.4227 C   0  0  0  0  0  0  0  0  0  0  0  0
  -34.2558    4.9088  -43.1443 C   0  0  0  0  0  0  0  0  0  0  0  0
  -36.3899    2.5210  -45.5269 X   0  0  0  0  0  0  0  0  0  0  0  0
  1  2  1  0  0  0  0
  2  3  1  0  0  0  0
  2  5  1  0  0  0  0
  2  9  1  0  0  0  0
  3  4  1  0  0  0  0
  5  6  1  0  0  0  0
  6  7  1  0  0  0  0
  7  8  1  0  0  0  0
  7 10  1  0  0  0  0
  8  9  1  0  0  0  0
M  END
> <Index>
22751

> <PropertyFieldDistance>
nan

$$$$
16660506
BBcorina  12272117083D 1   1.00000     0.00000 
CORINA 4.3.0 0026  30.10.2019
 10 11  0  0  0  0  0  0  0  0999 V2000
  -38.8770    4.0163  -45.2498 O   0  0  0  0  0  0  0  0  0  0  0  0
  -38.2499    4.8809  -44.3005 C   0  0  0  0  0  0  0  0  0  0  0  0
  -37.0736    4.1527  -43.6468 C   0  0  0  0  0  0  0  0  0  0  0  0
  -36.4313    5.0384  -42.5551 C   0  0  0  0  0  0  0  0  0  0  0  0
  -34.9239    4.7626  -42.6644 C   0  0  0  0  0  0  0  0  0  0  0  0
  -33.8962    5.8631  -42.4359 C   0  0  0  0  0  0  0  0  0  0  0  0
  -34.0325    4.7159  -41.4306 C   0  0  0  0  0  0  0  0  0  0  0  0
  -34.7660    3.7449  -43.8058 C   0  0  0  0  0  0  0  0  0  0  0  0
  -35.9869    3.9271  -44.6352 N   0  0  0  0  0  0  0  0  0  0  0  0
  -36.2980    2.5373  -45.5815 X   0  0  0  0  0  0  0  0  0  0  0  0
  1  2  1  0  0  0  0
  2  3  1  0  0  0  0
  3  4  1  0  0  0  0
  3  9  1  0  0  0  0
  4  5  1  0  0  0  0
  5  6  1  0  0  0  0
  5  7  1  0  0  0  0
  5  8  1  0  0  0  0
  6  7  1  0  0  0  0
  8  9  1  0  0  0  0
  9 10  1  0  0  0  0
M  END
> <Index>
22761

> <PropertyFieldDistance>
nan

$$$$
16712352
BBcorina  12272117083D 1   1.00000     0.00000 
CORINA 4.3.0 0026  30.10.2019
 14 15  0  0  0  0  0  0  0  0999 V2000
  -33.0609    5.7094  -43.6918 N   0  0  0  0  0  0  0  0  0  0  0  0
  -34.2691    5.0007  -43.2489 C   0  0  0  0  0  0  0  0  0  0  0  0
  -35.3827    6.0140  -42.9697 C   0  0  0  0  0  0  0  0  0  0  0  0
  -36.6554    5.2624  -42.5668 C   0  0  0  0  0  0  0  0  0  0  0  0
  -37.0433    4.2897  -43.6827 C   0  0  0  0  0  0  0  0  0  0  0  0
  -35.9454    3.3417  -43.9109 N   0  0  0  0  0  0  0  0  0  0  0  0
  -34.7261    4.0356  -44.3452 C   0  0  0  0  0  0  0  0  0  0  0  0
  -36.3354    2.3075  -44.8786 C   0  0  0  0  0  0  0  0  0  0  0  0
  -37.6105    1.6092  -44.3963 C   0  0  0  0  0  0  0  0  0  0  0  0
  -38.0531    0.5885  -45.4479 C   0  0  0  0  0  0  0  0  0  0  0  0
  -38.2569    1.2516  -46.6972 O   0  0  0  0  0  0  0  0  0  0  0  0
  -37.0864    1.8827  -47.2206 C   0  0  0  0  0  0  0  0  0  0  0  0
  -36.6029    2.9552  -46.2407 C   0  0  0  0  0  0  0  0  0  0  0  0
  -33.3625    6.6017  -45.1189 X   0  0  0  0  0  0  0  0  0  0  0  0
  1  2  1  0  0  0  0
  1 14  1  0  0  0  0
  2  3  1  0  0  0  0
  2  7  1  0  0  0  0
  3  4  1  0  0  0  0
  4  5  1  0  0  0  0
  5  6  1  0  0  0  0
  6  7  1  0  0  0  0
  6  8  1  0  0  0  0
  8  9  1  0  0  0  0
  8 13  1  0  0  0  0
  9 10  1  0  0  0  0
 10 11  1  0  0  0  0
 11 12  1  0  0  0  0
 12 13  1  0  0  0  0
M  END
> <Index>
22766

> <PropertyFieldDistance>
nan

$$$$
12206164
BBcorina  12272117083D 1   1.00000     0.00000 
CORINA 4.3.0 0026  30.10.2019
 10 11  0  0  0  0  0  0  0  0999 V2000
  -36.0599    3.5385  -44.4034 N   0  0  0  0  0  0  0  0  0  0  0  0
  -37.0084    4.5497  -43.8703 C   0  0  0  0  0  0  0  0  0  0  0  0
  -36.4674    4.8265  -42.4451 C   0  0  0  0  0  0  0  0  0  0  0  0
  -34.9348    4.7718  -42.6404 C   0  0  0  0  0  0  0  0  0  0  0  0
  -34.7221    3.9485  -43.9242 C   0  0  0  0  0  0  0  0  0  0  0  0
  -34.2985    4.1056  -41.4962 N   0  0  0  0  0  0  0  0  0  0  0  0
  -34.3579    4.9564  -40.2870 C   0  0  0  0  0  0  0  0  0  0  0  0
  -32.9013    4.5268  -40.0348 C   0  0  0  0  0  0  0  0  0  0  0  0
  -32.8246    4.2507  -41.5472 C   0  0  0  0  0  0  0  0  0  0  0  0
  -36.1110    3.4912  -46.1119 X   0  0  0  0  0  0  0  0  0  0  0  0
  1  2  1  0  0  0  0
  1  5  1  0  0  0  0
  1 10  1  0  0  0  0
  2  3  1  0  0  0  0
  3  4  1  0  0  0  0
  4  5  1  0  0  0  0
  4  6  1  0  0  0  0
  6  7  1  0  0  0  0
  6  9  1  0  0  0  0
  7  8  1  0  0  0  0
  8  9  1  0  0  0  0
M  END
> <Index>
22767

> <PropertyFieldDistance>
nan

$$$$
15162584
BBcorina  12272117083D 1   1.00000     0.00000 
CORINA 4.3.0 0026  30.10.2019
 10 11  0  0  0  0  0  0  0  0999 V2000
  -37.3790    6.0498  -44.0789 F   0  0  0  0  0  0  0  0  0  0  0  0
  -36.7636    5.4774  -42.9605 C   0  0  0  0  0  0  0  0  0  0  0  0
  -37.4858    5.7767  -41.8003 F   0  0  0  0  0  0  0  0  0  0  0  0
  -35.2940    5.9781  -42.8147 C   0  0  0  0  0  0  0  0  0  0  0  0
  -34.4466    4.6772  -42.9730 C   0  0  0  0  0  0  0  0  0  0  0  0
  -35.3779    3.6382  -42.2505 C   0  0  0  0  0  0  0  0  0  0  0  0
  -36.6366    3.9338  -43.1396 C   0  0  0  0  0  0  0  0  0  0  0  0
  -36.0734    3.7392  -44.5112 N   0  0  0  0  0  0  0  0  0  0  0  0
  -34.6672    4.2360  -44.4533 C   0  0  0  0  0  0  0  0  0  0  0  0
  -36.9711    4.6169  -45.6724 X   0  0  0  0  0  0  0  0  0  0  0  0
  1  2  1  0  0  0  0
  2  3  1  0  0  0  0
  2  4  1  0  0  0  0
  2  7  1  0  0  0  0
  4  5  1  0  0  0  0
  5  6  1  0  0  0  0
  5  9  1  0  0  0  0
  6  7  1  0  0  0  0
  7  8  1  0  0  0  0
  8  9  1  0  0  0  0
  8 10  1  0  0  0  0
M  END
> <Index>
22777

> <PropertyFieldDistance>
nan

$$$$
9421934
BBcorina  12272117083D 1   1.00000     0.00000 
CORINA 4.3.0 0026  30.10.2019
 16 16  0  0  0  0  0  0  0  0999 V2000
  -37.4231    5.4572  -44.8550 C   0  0  0  0  0  0  0  0  0  0  0  0
  -37.1072    4.4092  -43.7859 C   0  0  0  0  0  0  0  0  0  0  0  0
  -36.6609    5.1080  -42.4977 C   0  0  0  0  0  0  0  0  0  0  0  0
  -35.3388    5.8368  -42.7493 C   0  0  0  0  0  0  0  0  0  0  0  0
  -34.2633    4.8233  -43.1467 C   0  0  0  0  0  0  0  0  0  0  0  0
  -34.6824    4.1213  -44.4422 C   0  0  0  0  0  0  0  0  0  0  0  0
  -36.0188    3.5404  -44.2541 N   0  0  0  0  0  0  0  0  0  0  0  0
  -36.2421    2.2354  -44.5065 C   0  0  0  0  0  0  0  0  0  0  0  0
  -37.3519    1.7670  -44.3471 O   0  0  0  0  0  0  0  0  0  0  0  0
  -35.2354    1.4509  -44.9351 O   0  0  0  0  0  0  0  0  0  0  0  0
  -35.5485    0.0555  -45.1868 C   0  0  0  0  0  0  0  0  0  0  0  0
  -36.6303   -0.0380  -46.2647 C   0  0  0  0  0  0  0  0  0  0  0  0
  -34.2895   -0.6717  -45.6632 C   0  0  0  0  0  0  0  0  0  0  0  0
  -36.0556   -0.5939  -43.8976 C   0  0  0  0  0  0  0  0  0  0  0  0
  -34.9246    6.5355  -41.5253 N   0  0  0  0  0  0  0  0  0  0  0  0
  -34.6017    5.4254  -40.2654 X   0  0  0  0  0  0  0  0  0  0  0  0
  1  2  1  0  0  0  0
  2  3  1  0  0  0  0
  2  7  1  0  0  0  0
  3  4  1  0  0  0  0
  4  5  1  0  0  0  0
  4 15  1  0  0  0  0
  5  6  1  0  0  0  0
  6  7  1  0  0  0  0
  7  8  1  0  0  0  0
  8  9  2  0  0  0  0
  8 10  1  0  0  0  0
 10 11  1  0  0  0  0
 11 12  1  0  0  0  0
 11 13  1  0  0  0  0
 11 14  1  0  0  0  0
 15 16  1  0  0  0  0
M  END
> <Index>
22792

> <PropertyFieldDistance>
nan

$$$$
15608512
BBcorina  12272117083D 1   1.00000     0.00000 
CORINA 4.3.0 0026  30.10.2019
 12 12  0  0  0  0  0  0  0  0999 V2000
  -36.0559   -1.2113  -48.3477 N   0  0  0  0  0  0  0  0  0  0  0  0
  -35.3576   -0.2237  -47.5140 C   0  0  0  0  0  0  0  0  0  0  0  0
  -36.3824    0.5914  -46.7226 C   0  0  0  0  0  0  0  0  0  0  0  0
  -35.6551    1.6199  -45.8542 C   0  0  0  0  0  0  0  0  0  0  0  0
  -36.6645    2.4229  -45.0747 C   0  0  0  0  0  0  0  0  0  0  0  0
  -37.8489    2.1948  -45.2013 O   0  0  0  0  0  0  0  0  0  0  0  0
  -36.2509    3.3943  -44.2370 N   0  0  0  0  0  0  0  0  0  0  0  0
  -37.1237    4.2497  -43.4196 C   0  0  0  0  0  0  0  0  0  0  0  0
  -36.2133    5.2258  -42.6450 C   0  0  0  0  0  0  0  0  0  0  0  0
  -34.9168    5.2422  -43.4972 C   0  0  0  0  0  0  0  0  0  0  0  0
  -34.8483    3.7708  -43.9838 C   0  0  0  0  0  0  0  0  0  0  0  0
  -34.9448   -2.1459  -49.2511 X   0  0  0  0  0  0  0  0  0  0  0  0
  1  2  1  0  0  0  0
  1 12  1  0  0  0  0
  2  3  1  0  0  0  0
  3  4  1  0  0  0  0
  4  5  1  0  0  0  0
  5  6  2  0  0  0  0
  5  7  1  0  0  0  0
  7  8  1  0  0  0  0
  7 11  1  0  0  0  0
  8  9  1  0  0  0  0
  9 10  1  0  0  0  0
 10 11  1  0  0  0  0
M  END
> <Index>
22801

> <PropertyFieldDistance>
nan

$$$$
16715236
BBcorina  12272117083D 1   1.00000     0.00000 
CORINA 4.3.0 0026  30.10.2019
 11 11  0  0  0  0  0  0  0  0999 V2000
  -37.2215    6.5445  -40.5769 C   0  0  0  0  0  0  0  0  0  0  0  0
  -37.5651    5.3160  -41.4217 C   0  0  0  0  0  0  0  0  0  0  0  0
  -39.0138    5.4169  -41.9031 C   0  0  0  0  0  0  0  0  0  0  0  0
  -37.4067    4.1355  -40.6320 O   0  0  0  0  0  0  0  0  0  0  0  0
  -36.6292    5.2503  -42.6303 C   0  0  0  0  0  0  0  0  0  0  0  0
  -36.9722    4.0212  -43.4762 C   0  0  0  0  0  0  0  0  0  0  0  0
  -36.0221    3.9199  -44.5935 N   0  0  0  0  0  0  0  0  0  0  0  0
  -34.6417    3.8205  -44.0949 C   0  0  0  0  0  0  0  0  0  0  0  0
  -34.3221    5.0517  -43.2428 C   0  0  0  0  0  0  0  0  0  0  0  0
  -35.2751    5.1508  -42.1811 O   0  0  0  0  0  0  0  0  0  0  0  0
  -36.4062    2.5970  -45.6066 X   0  0  0  0  0  0  0  0  0  0  0  0
  1  2  1  0  0  0  0
  2  3  1  0  0  0  0
  2  4  1  0  0  0  0
  2  5  1  0  0  0  0
  5  6  1  0  0  0  0
  5 10  1  0  0  0  0
  6  7  1  0  0  0  0
  7  8  1  0  0  0  0
  7 11  1  0  0  0  0
  8  9  1  0  0  0  0
  9 10  1  0  0  0  0
M  END
> <Index>
22838

> <PropertyFieldDistance>
nan

$$$$
15773702
BBcorina  12272117083D 1   1.00000     0.00000 
CORINA 4.3.0 0026  30.10.2019
 12 12  0  0  0  0  0  0  0  0999 V2000
  -35.6162   -0.6647  -45.8416 F   0  0  0  0  0  0  0  0  0  0  0  0
  -36.6399    0.2520  -46.1035 C   0  0  0  0  0  0  0  0  0  0  0  0
  -37.6849    0.0683  -45.1917 F   0  0  0  0  0  0  0  0  0  0  0  0
  -37.1636    0.0476  -47.5398 C   0  0  0  0  0  0  0  0  0  0  0  0
  -36.0935   -0.2311  -48.4861 C   0  0  0  0  0  0  0  0  0  0  0  0
  -35.0862    0.9320  -48.5936 C   0  0  0  0  0  0  0  0  0  0  0  0
  -34.1391    0.8537  -47.4269 C   0  0  0  0  0  0  0  0  0  0  0  0
  -34.5889    1.7306  -46.2426 C   0  0  0  0  0  0  0  0  0  0  0  0
  -36.1059    1.6538  -45.9847 C   0  0  0  0  0  0  0  0  0  0  0  0
  -36.3933    2.1751  -44.5753 C   0  0  0  0  0  0  0  0  0  0  0  0
  -36.0173    3.5927  -44.4913 N   0  0  0  0  0  0  0  0  0  0  0  0
  -36.3230    4.2163  -42.9287 X   0  0  0  0  0  0  0  0  0  0  0  0
  1  2  1  0  0  0  0
  2  3  1  0  0  0  0
  2  4  1  0  0  0  0
  2  9  1  0  0  0  0
  4  5  1  0  0  0  0
  5  6  1  0  0  0  0
  6  7  1  0  0  0  0
  7  8  1  0  0  0  0
  8  9  1  0  0  0  0
  9 10  1  0  0  0  0
 10 11  1  0  0  0  0
 11 12  1  0  0  0  0
M  END
> <Index>
22843

> <PropertyFieldDistance>
nan

$$$$
16649686
BBcorina  12272117083D 1   1.00000     0.00000 
CORINA 4.3.0 0026  30.10.2019
 11 12  0  0  0  0  0  0  0  0999 V2000
  -32.0411    4.0988  -43.1978 O   0  0  0  0  0  0  0  0  0  0  0  0
  -32.9111    5.2010  -42.9323 C   0  0  0  0  0  0  0  0  0  0  0  0
  -34.3657    4.7336  -43.0139 C   0  0  0  0  0  0  0  0  0  0  0  0
  -35.3026    5.9121  -42.7300 C   0  0  0  0  0  0  0  0  0  0  0  0
  -36.7524    5.4404  -42.8751 C   0  0  0  0  0  0  0  0  0  0  0  0
  -36.7641    3.9524  -43.2336 C   0  0  0  0  0  0  0  0  0  0  0  0
  -36.0785    3.1541  -42.1226 C   0  0  0  0  0  0  0  0  0  0  0  0
  -34.6259    3.6278  -41.9858 C   0  0  0  0  0  0  0  0  0  0  0  0
  -34.6546    4.1908  -44.4158 C   0  0  0  0  0  0  0  0  0  0  0  0
  -36.0505    3.7463  -44.4993 N   0  0  0  0  0  0  0  0  0  0  0  0
  -36.1449    2.1130  -44.9969 X   0  0  0  0  0  0  0  0  0  0  0  0
  1  2  1  0  0  0  0
  2  3  1  0  0  0  0
  3  4  1  0  0  0  0
  3  8  1  0  0  0  0
  3  9  1  0  0  0  0
  4  5  1  0  0  0  0
  5  6  1  0  0  0  0
  6  7  1  0  0  0  0
  6 10  1  0  0  0  0
  7  8  1  0  0  0  0
  9 10  1  0  0  0  0
 10 11  1  0  0  0  0
M  END
> <Index>
22853

> <PropertyFieldDistance>
nan

$$$$
16466216
BBcorina  12272117083D 1   1.00000     0.00000 
CORINA 4.3.0 0026  30.10.2019
 12 12  0  0  0  0  0  0  0  0999 V2000
  -34.7234    8.7538  -45.1611 C   0  0  0  0  0  0  0  0  0  0  0  0
  -34.5249    7.7069  -44.0954 C   0  0  0  0  0  0  0  0  0  0  0  0
  -33.4459    7.5897  -43.5539 O   0  0  0  0  0  0  0  0  0  0  0  0
  -35.5463    6.9008  -43.7440 N   0  0  0  0  0  0  0  0  0  0  0  0
  -35.3533    5.8832  -42.7080 C   0  0  0  0  0  0  0  0  0  0  0  0
  -34.9457    6.5588  -41.3971 C   0  0  0  0  0  0  0  0  0  0  0  0
  -36.6586    5.1099  -42.5008 C   0  0  0  0  0  0  0  0  0  0  0  0
  -37.0298    4.3870  -43.7976 C   0  0  0  0  0  0  0  0  0  0  0  0
  -35.9477    3.4664  -44.1723 N   0  0  0  0  0  0  0  0  0  0  0  0
  -34.6956    4.1916  -44.4226 C   0  0  0  0  0  0  0  0  0  0  0  0
  -34.2557    4.9087  -43.1443 C   0  0  0  0  0  0  0  0  0  0  0  0
  -36.3896    2.5210  -45.5271 X   0  0  0  0  0  0  0  0  0  0  0  0
  1  2  1  0  0  0  0
  2  3  2  0  0  0  0
  2  4  1  0  0  0  0
  4  5  1  0  0  0  0
  5  6  1  0  0  0  0
  5  7  1  0  0  0  0
  5 11  1  0  0  0  0
  7  8  1  0  0  0  0
  8  9  1  0  0  0  0
  9 10  1  0  0  0  0
  9 12  1  0  0  0  0
 10 11  1  0  0  0  0
M  END
> <Index>
22857

> <PropertyFieldDistance>
nan

$$$$
16466220
BBcorina  12272117083D 1   1.00000     0.00000 
CORINA 4.3.0 0026  30.10.2019
 12 12  0  0  0  0  0  0  0  0999 V2000
  -33.6346    8.1783  -40.3722 C   0  0  0  0  0  0  0  0  0  0  0  0
  -33.8468    7.1465  -41.3715 O   0  0  0  0  0  0  0  0  0  0  0  0
  -35.0979    6.6571  -41.4900 C   0  0  0  0  0  0  0  0  0  0  0  0
  -35.9869    7.0817  -40.7771 O   0  0  0  0  0  0  0  0  0  0  0  0
  -35.3858    5.6149  -42.4768 C   0  0  0  0  0  0  0  0  0  0  0  0
  -36.6259    5.1526  -42.5721 C   0  0  0  0  0  0  0  0  0  0  0  0
  -37.5722    5.6683  -41.7573 F   0  0  0  0  0  0  0  0  0  0  0  0
  -37.0235    4.0798  -43.5452 C   0  0  0  0  0  0  0  0  0  0  0  0
  -36.0025    3.9393  -44.5909 N   0  0  0  0  0  0  0  0  0  0  0  0
  -34.6699    3.7813  -43.9859 C   0  0  0  0  0  0  0  0  0  0  0  0
  -34.2655    5.1105  -43.3435 C   0  0  0  0  0  0  0  0  0  0  0  0
  -36.3639    2.6286  -45.6280 X   0  0  0  0  0  0  0  0  0  0  0  0
  1  2  1  0  0  0  0
  2  3  1  0  0  0  0
  3  4  2  0  0  0  0
  3  5  1  0  0  0  0
  5  6  2  0  0  0  0
  5 11  1  0  0  0  0
  6  7  1  0  0  0  0
  6  8  1  0  0  0  0
  8  9  1  0  0  0  0
  9 10  1  0  0  0  0
  9 12  1  0  0  0  0
 10 11  1  0  0  0  0
M  END
> <Index>
22859

> <PropertyFieldDistance>
nan

$$$$
16466226
BBcorina  12272117083D 1   1.00000     0.00000 
CORINA 4.3.0 0026  30.10.2019
 12 13  0  0  0  0  0  0  0  0999 V2000
  -34.9741    6.9071  -41.8784 N   0  0  0  0  0  0  0  0  0  0  0  0
  -35.3833    6.0132  -42.9700 C   0  0  0  0  0  0  0  0  0  0  0  0
  -36.6554    5.2624  -42.5667 C   0  0  0  0  0  0  0  0  0  0  0  0
  -37.0433    4.2898  -43.6828 C   0  0  0  0  0  0  0  0  0  0  0  0
  -35.9453    3.3417  -43.9109 N   0  0  0  0  0  0  0  0  0  0  0  0
  -34.7262    4.0356  -44.3452 C   0  0  0  0  0  0  0  0  0  0  0  0
  -34.2691    5.0006  -43.2489 C   0  0  0  0  0  0  0  0  0  0  0  0
  -36.3353    2.3075  -44.8786 C   0  0  0  0  0  0  0  0  0  0  0  0
  -35.1914    1.3484  -45.2586 C   0  0  0  0  0  0  0  0  0  0  0  0
  -36.1768    0.3037  -45.1312 O   0  0  0  0  0  0  0  0  0  0  0  0
  -37.0035    1.0764  -44.2379 C   0  0  0  0  0  0  0  0  0  0  0  0
  -34.5537    6.0155  -40.4812 X   0  0  0  0  0  0  0  0  0  0  0  0
  1  2  1  0  0  0  0
  1 12  1  0  0  0  0
  2  3  1  0  0  0  0
  2  7  1  0  0  0  0
  3  4  1  0  0  0  0
  4  5  1  0  0  0  0
  5  6  1  0  0  0  0
  5  8  1  0  0  0  0
  6  7  1  0  0  0  0
  8  9  1  0  0  0  0
  8 11  1  0  0  0  0
  9 10  1  0  0  0  0
 10 11  1  0  0  0  0
M  END
> <Index>
22862

> <PropertyFieldDistance>
nan

$$$$
16712356
BBcorina  12272117083D 1   1.00000     0.00000 
CORINA 4.3.0 0026  30.10.2019
 13 14  0  0  0  0  0  0  0  0999 V2000
  -32.9125    5.1891  -42.9792 N   0  0  0  0  0  0  0  0  0  0  0  0
  -34.3081    5.1368  -43.4351 C   0  0  0  0  0  0  0  0  0  0  0  0
  -35.2384    5.5076  -42.2769 C   0  0  0  0  0  0  0  0  0  0  0  0
  -36.6923    5.3914  -42.7433 C   0  0  0  0  0  0  0  0  0  0  0  0
  -36.9513    3.9683  -43.2428 C   0  0  0  0  0  0  0  0  0  0  0  0
  -36.0372    3.6630  -44.3508 N   0  0  0  0  0  0  0  0  0  0  0  0
  -34.6362    3.7211  -43.9147 C   0  0  0  0  0  0  0  0  0  0  0  0
  -36.3496    2.3570  -44.9464 C   0  0  0  0  0  0  0  0  0  0  0  0
  -37.8120    2.3318  -45.4243 C   0  0  0  0  0  0  0  0  0  0  0  0
  -37.7740    2.0829  -46.9463 C   0  0  0  0  0  0  0  0  0  0  0  0
  -36.4114    1.3857  -47.1833 C   0  0  0  0  0  0  0  0  0  0  0  0
  -35.4740    2.1226  -46.1946 C   0  0  0  0  0  0  0  0  0  0  0  0
  -32.2480    6.7466  -43.2172 X   0  0  0  0  0  0  0  0  0  0  0  0
  1  2  1  0  0  0  0
  1 13  1  0  0  0  0
  2  3  1  0  0  0  0
  2  7  1  0  0  0  0
  3  4  1  0  0  0  0
  4  5  1  0  0  0  0
  5  6  1  0  0  0  0
  6  7  1  0  0  0  0
  6  8  1  0  0  0  0
  8  9  1  0  0  0  0
  8 12  1  0  0  0  0
  9 10  1  0  0  0  0
 10 11  1  0  0  0  0
 11 12  1  0  0  0  0
M  END
> <Index>
22863

> <PropertyFieldDistance>
nan

$$$$
16726124
BBcorina  12272117083D 1   1.00000     0.00000 
CORINA 4.3.0 0026  30.10.2019
 11 12  0  0  0  0  0  0  0  0999 V2000
  -36.0164    3.9237  -44.5767 N   0  0  0  0  0  0  0  0  0  0  0  0
  -36.9841    4.0251  -43.4814 C   0  0  0  0  0  0  0  0  0  0  0  0
  -36.6760    5.2428  -42.6116 C   0  0  0  0  0  0  0  0  0  0  0  0
  -35.2439    5.1379  -42.0794 C   0  0  0  0  0  0  0  0  0  0  0  0
  -34.2773    5.0488  -43.2638 C   0  0  0  0  0  0  0  0  0  0  0  0
  -34.6334    3.8232  -44.1042 C   0  0  0  0  0  0  0  0  0  0  0  0
  -34.4492    2.5401  -43.2891 C   0  0  0  0  0  0  0  0  0  0  0  0
  -35.5109    2.5050  -42.2098 C   0  0  0  0  0  0  0  0  0  0  0  0
  -35.1998    2.2676  -40.9597 C   0  0  0  0  0  0  0  0  0  0  0  0
  -36.9317    2.7534  -42.6302 C   0  0  0  0  0  0  0  0  0  0  0  0
  -36.1960    5.2219  -45.6751 X   0  0  0  0  0  0  0  0  0  0  0  0
  1  2  1  0  0  0  0
  1  6  1  0  0  0  0
  1 11  1  0  0  0  0
  2  3  1  0  0  0  0
  2 10  1  0  0  0  0
  3  4  1  0  0  0  0
  4  5  1  0  0  0  0
  5  6  1  0  0  0  0
  6  7  1  0  0  0  0
  7  8  1  0  0  0  0
  8  9  2  0  0  0  0
  8 10  1  0  0  0  0
M  END
> <Index>
22864

> <PropertyFieldDistance>
nan

$$$$
15706006
BBcorina  12272117083D 1   1.00000     0.00000 
CORINA 4.3.0 0026  30.10.2019
 11 12  0  0  0  0  0  0  0  0999 V2000
  -35.9637    3.4674  -44.1611 N   0  0  0  0  0  0  0  0  0  0  0  0
  -36.9721    4.4896  -43.8398 C   0  0  0  0  0  0  0  0  0  0  0  0
  -36.6943    5.0274  -42.4354 C   0  0  0  0  0  0  0  0  0  0  0  0
  -35.2466    5.4275  -42.3179 C   0  0  0  0  0  0  0  0  0  0  0  0
  -34.8765    6.2165  -41.3217 N   0  0  0  0  0  0  0  0  0  0  0  0
  -33.6608    6.5895  -41.1576 N   0  0  0  0  0  0  0  0  0  0  0  0
  -32.6933    6.2126  -41.9716 C   0  0  0  0  0  0  0  0  0  0  0  0
  -32.9833    5.3871  -43.0464 C   0  0  0  0  0  0  0  0  0  0  0  0
  -34.3024    4.9855  -43.2223 C   0  0  0  0  0  0  0  0  0  0  0  0
  -34.6547    4.0937  -44.3792 C   0  0  0  0  0  0  0  0  0  0  0  0
  -36.4367    2.5463  -45.5219 X   0  0  0  0  0  0  0  0  0  0  0  0
  1  2  1  0  0  0  0
  1 10  1  0  0  0  0
  1 11  1  0  0  0  0
  2  3  1  0  0  0  0
  3  4  1  0  0  0  0
  4  5  2  0  0  0  0
  4  9  1  0  0  0  0
  5  6  1  0  0  0  0
  6  7  2  0  0  0  0
  7  8  1  0  0  0  0
  8  9  2  0  0  0  0
  9 10  1  0  0  0  0
M  END
> <Index>
22875

> <PropertyFieldDistance>
nan

$$$$
16897598
BBcorina  12272117083D 1   1.00000     0.00000 
CORINA 4.3.0 0026  30.10.2019
  9  9  0  0  0  0  0  0  0  0999 V2000
  -40.2023    2.6542  -45.0110 C   0  0  0  0  0  0  0  0  0  0  0  0
  -38.9948    3.4183  -45.0281 O   0  0  0  0  0  0  0  0  0  0  0  0
  -38.4740    3.7116  -43.7301 C   0  0  0  0  0  0  0  0  0  0  0  0
  -37.1880    4.5286  -43.8692 C   0  0  0  0  0  0  0  0  0  0  0  0
  -37.3631    5.7777  -44.7352 C   0  0  0  0  0  0  0  0  0  0  0  0
  -36.4757    4.7966  -42.5311 C   0  0  0  0  0  0  0  0  0  0  0  0
  -35.7014    3.4919  -42.7915 C   0  0  0  0  0  0  0  0  0  0  0  0
  -36.0000    3.7166  -44.2232 N   0  0  0  0  0  0  0  0  0  0  0  0
  -36.4583    2.2585  -44.9898 X   0  0  0  0  0  0  0  0  0  0  0  0
  1  2  1  0  0  0  0
  2  3  1  0  0  0  0
  3  4  1  0  0  0  0
  4  5  1  0  0  0  0
  4  6  1  0  0  0  0
  4  8  1  0  0  0  0
  6  7  1  0  0  0  0
  7  8  1  0  0  0  0
  8  9  1  0  0  0  0
M  END
> <Index>
22898

> <PropertyFieldDistance>
nan

$$$$
16739124
BBcorina  12272117083D 1   1.00000     0.00000 
CORINA 4.3.0 0026  30.10.2019
 11 11  0  0  0  0  0  0  0  0999 V2000
  -34.9399    7.1901  -41.6003 O   0  0  0  0  0  0  0  0  0  0  0  0
  -34.5589    6.3887  -42.7204 C   0  0  0  0  0  0  0  0  0  0  0  0
  -35.1280    4.9781  -42.5553 C   0  0  0  0  0  0  0  0  0  0  0  0
  -36.6662    5.0043  -42.6685 C   0  0  0  0  0  0  0  0  0  0  0  0
  -36.9943    4.1106  -43.8837 C   0  0  0  0  0  0  0  0  0  0  0  0
  -35.8249    3.2028  -44.0074 N   0  0  0  0  0  0  0  0  0  0  0  0
  -35.7348    2.6419  -45.3621 C   0  0  0  0  0  0  0  0  0  0  0  0
  -36.8818    1.6536  -45.5823 C   0  0  0  0  0  0  0  0  0  0  0  0
  -36.7918    1.0927  -46.9370 N   0  0  0  0  0  0  0  0  0  0  0  0
  -34.6539    4.0702  -43.7103 C   0  0  0  0  0  0  0  0  0  0  0  0
  -38.0582   -0.0196  -47.2252 X   0  0  0  0  0  0  0  0  0  0  0  0
  1  2  1  0  0  0  0
  2  3  1  0  0  0  0
  3  4  1  0  0  0  0
  3 10  1  0  0  0  0
  4  5  1  0  0  0  0
  5  6  1  0  0  0  0
  6  7  1  0  0  0  0
  6 10  1  0  0  0  0
  7  8  1  0  0  0  0
  8  9  1  0  0  0  0
  9 11  1  0  0  0  0
M  END
> <Index>
22909

> <PropertyFieldDistance>
nan

$$$$
17069832
BBcorina  12272117083D 1   1.00000     0.00000 
CORINA 4.3.0 0026  30.10.2019
 10 10  0  0  0  0  0  0  0  0999 V2000
  -31.9855    4.9510  -44.0937 C   0  0  0  0  0  0  0  0  0  0  0  0
  -32.9126    5.1891  -42.9793 N   0  0  0  0  0  0  0  0  0  0  0  0
  -34.3080    5.1369  -43.4352 C   0  0  0  0  0  0  0  0  0  0  0  0
  -35.2385    5.5067  -42.2767 C   0  0  0  0  0  0  0  0  0  0  0  0
  -36.6923    5.3914  -42.7433 C   0  0  0  0  0  0  0  0  0  0  0  0
  -36.9514    3.9683  -43.2428 C   0  0  0  0  0  0  0  0  0  0  0  0
  -36.0372    3.6630  -44.3508 N   0  0  0  0  0  0  0  0  0  0  0  0
  -36.3495    2.3571  -44.9464 C   0  0  0  0  0  0  0  0  0  0  0  0
  -34.6363    3.7210  -43.9146 C   0  0  0  0  0  0  0  0  0  0  0  0
  -32.6411    4.0780  -41.7082 X   0  0  0  0  0  0  0  0  0  0  0  0
  1  2  1  0  0  0  0
  2  3  1  0  0  0  0
  2 10  1  0  0  0  0
  3  4  1  0  0  0  0
  3  9  1  0  0  0  0
  4  5  1  0  0  0  0
  5  6  1  0  0  0  0
  6  7  1  0  0  0  0
  7  8  1  0  0  0  0
  7  9  1  0  0  0  0
M  END
> <Index>
22911

> <PropertyFieldDistance>
nan

$$$$
12310448
BBcorina  12272117083D 1   1.00000     0.00000 
CORINA 4.3.0 0026  30.10.2019
 11 12  0  0  0  0  0  0  0  0999 V2000
  -35.9629    3.7572  -44.4210 N   0  0  0  0  0  0  0  0  0  0  0  0
  -36.9852    4.6585  -43.8468 C   0  0  0  0  0  0  0  0  0  0  0  0
  -36.8089    4.5426  -42.3179 C   0  0  0  0  0  0  0  0  0  0  0  0
  -35.3627    4.0461  -42.1171 C   0  0  0  0  0  0  0  0  0  0  0  0
  -34.7846    3.9092  -43.5427 C   0  0  0  0  0  0  0  0  0  0  0  0
  -34.0457    5.1961  -43.9093 C   0  0  0  0  0  0  0  0  0  0  0  0
  -34.5867    6.3340  -43.0553 C   0  0  0  0  0  0  0  0  0  0  0  0
  -33.8861    6.8603  -42.2168 O   0  0  0  0  0  0  0  0  0  0  0  0
  -35.8633    6.7527  -43.2496 N   0  0  0  0  0  0  0  0  0  0  0  0
  -36.6802    6.0954  -44.2698 C   0  0  0  0  0  0  0  0  0  0  0  0
  -35.5892    4.2003  -46.0298 X   0  0  0  0  0  0  0  0  0  0  0  0
  1  2  1  0  0  0  0
  1  5  1  0  0  0  0
  1 11  1  0  0  0  0
  2  3  1  0  0  0  0
  2 10  1  0  0  0  0
  3  4  1  0  0  0  0
  4  5  1  0  0  0  0
  5  6  1  0  0  0  0
  6  7  1  0  0  0  0
  7  8  2  0  0  0  0
  7  9  1  0  0  0  0
  9 10  1  0  0  0  0
M  END
> <Index>
22917

> <PropertyFieldDistance>
nan

$$$$
15758710
BBcorina  12272117083D 1   1.00000     0.00000 
CORINA 4.3.0 0026  30.10.2019
 12 13  0  0  0  0  0  0  0  0999 V2000
  -36.0194    3.9412  -44.5845 N   0  0  0  0  0  0  0  0  0  0  0  0
  -36.9723    4.0084  -43.4692 C   0  0  0  0  0  0  0  0  0  0  0  0
  -36.6796    5.2477  -42.6205 C   0  0  0  0  0  0  0  0  0  0  0  0
  -35.2463    5.1684  -42.0875 C   0  0  0  0  0  0  0  0  0  0  0  0
  -34.2763    5.0495  -43.2663 C   0  0  0  0  0  0  0  0  0  0  0  0
  -34.6397    3.8168  -44.0973 C   0  0  0  0  0  0  0  0  0  0  0  0
  -34.9320    6.4144  -41.3003 C   0  0  0  0  0  0  0  0  0  0  0  0
  -35.6957    7.4292  -41.1734 N   0  0  0  0  0  0  0  0  0  0  0  0
  -35.1373    8.4485  -40.3685 O   0  0  0  0  0  0  0  0  0  0  0  0
  -33.7192    8.2009  -40.2765 C   0  0  0  0  0  0  0  0  0  0  0  0
  -33.6574    6.6719  -40.5195 C   0  0  0  0  0  0  0  0  0  0  0  0
  -36.4111    2.6614  -45.6489 X   0  0  0  0  0  0  0  0  0  0  0  0
  1  2  1  0  0  0  0
  1  6  1  0  0  0  0
  1 12  1  0  0  0  0
  2  3  1  0  0  0  0
  3  4  1  0  0  0  0
  4  5  1  0  0  0  0
  4  7  1  0  0  0  0
  5  6  1  0  0  0  0
  7  8  2  0  0  0  0
  7 11  1  0  0  0  0
  8  9  1  0  0  0  0
  9 10  1  0  0  0  0
 10 11  1  0  0  0  0
M  END
> <Index>
22941

> <PropertyFieldDistance>
nan

$$$$
16512006
BBcorina  12272117083D 1   1.00000     0.00000 
CORINA 4.3.0 0026  30.10.2019
 11 12  0  0  0  0  0  0  0  0999 V2000
  -35.9407    3.4717  -44.1513 N   0  0  0  0  0  0  0  0  0  0  0  0
  -37.0338    4.3873  -43.8021 C   0  0  0  0  0  0  0  0  0  0  0  0
  -36.6999    5.1033  -42.4888 C   0  0  0  0  0  0  0  0  0  0  0  0
  -35.3442    5.8006  -42.6425 C   0  0  0  0  0  0  0  0  0  0  0  0
  -35.3421    7.2665  -43.0722 C   0  0  0  0  0  0  0  0  0  0  0  0
  -34.9835    6.8897  -41.6328 C   0  0  0  0  0  0  0  0  0  0  0  0
  -33.5719    7.0048  -41.2316 C   0  0  0  0  0  0  0  0  0  0  0  0
  -32.4825    7.0935  -40.9220 N   0  0  0  0  0  0  0  0  0  0  0  0
  -34.2161    4.9028  -43.1609 C   0  0  0  0  0  0  0  0  0  0  0  0
  -34.6969    4.1986  -44.4345 C   0  0  0  0  0  0  0  0  0  0  0  0
  -36.3773    2.4691  -45.4659 X   0  0  0  0  0  0  0  0  0  0  0  0
  1  2  1  0  0  0  0
  1 10  1  0  0  0  0
  1 11  1  0  0  0  0
  2  3  1  0  0  0  0
  3  4  1  0  0  0  0
  4  5  1  0  0  0  0
  4  6  1  0  0  0  0
  4  9  1  0  0  0  0
  5  6  1  0  0  0  0
  6  7  1  0  0  0  0
  7  8  3  0  0  0  0
  9 10  1  0  0  0  0
M  END
> <Index>
22946

> <PropertyFieldDistance>
nan

$$$$
16623586
BBcorina  12272117083D 1   1.00000     0.00000 
CORINA 4.3.0 0026  30.10.2019
 12 12  0  0  0  0  0  0  0  0999 V2000
  -35.8801    1.3177  -47.0884 C   0  0  0  0  0  0  0  0  0  0  0  0
  -35.4538    2.1626  -45.9701 N   0  0  0  0  0  0  0  0  0  0  0  0
  -36.3730    2.7086  -45.1495 C   0  0  0  0  0  0  0  0  0  0  0  0
  -37.5574    2.5787  -45.3913 O   0  0  0  0  0  0  0  0  0  0  0  0
  -35.9791    3.3986  -44.0608 N   0  0  0  0  0  0  0  0  0  0  0  0
  -36.9663    3.9019  -43.0959 C   0  0  0  0  0  0  0  0  0  0  0  0
  -36.7435    5.4049  -42.9010 C   0  0  0  0  0  0  0  0  0  0  0  0
  -35.2880    5.6527  -42.4982 C   0  0  0  0  0  0  0  0  0  0  0  0
  -34.3586    5.1671  -43.6129 C   0  0  0  0  0  0  0  0  0  0  0  0
  -34.5542    3.6566  -43.8130 C   0  0  0  0  0  0  0  0  0  0  0  0
  -35.0790    7.0900  -42.2781 N   0  0  0  0  0  0  0  0  0  0  0  0
  -35.5187    7.9922  -43.6626 X   0  0  0  0  0  0  0  0  0  0  0  0
  1  2  1  0  0  0  0
  2  3  1  0  0  0  0
  3  4  2  0  0  0  0
  3  5  1  0  0  0  0
  5  6  1  0  0  0  0
  5 10  1  0  0  0  0
  6  7  1  0  0  0  0
  7  8  1  0  0  0  0
  8  9  1  0  0  0  0
  8 11  1  0  0  0  0
  9 10  1  0  0  0  0
 11 12  1  0  0  0  0
M  END
> <Index>
22951

> <PropertyFieldDistance>
nan

$$$$
15506438
BBcorina  12272117083D 1   1.00000     0.00000 
CORINA 4.3.0 0026  30.10.2019
 10 11  0  0  0  0  0  0  0  0999 V2000
  -34.9842    4.7712  -45.4722 N   0  0  0  0  0  0  0  0  0  0  0  0
  -35.0105    3.3673  -45.0405 C   0  0  0  0  0  0  0  0  0  0  0  0
  -34.1885    3.2091  -43.7570 C   0  0  0  0  0  0  0  0  0  0  0  0
  -34.8858    3.9531  -42.6131 C   0  0  0  0  0  0  0  0  0  0  0  0
  -36.3450    3.4798  -42.5321 C   0  0  0  0  0  0  0  0  0  0  0  0
  -36.3474    1.9335  -42.5424 C   0  0  0  0  0  0  0  0  0  0  0  0
  -36.4244    1.5715  -44.0426 C   0  0  0  0  0  0  0  0  0  0  0  0
  -36.4592    2.9432  -44.7555 C   0  0  0  0  0  0  0  0  0  0  0  0
  -36.9942    3.8526  -43.7681 O   0  0  0  0  0  0  0  0  0  0  0  0
  -35.8197    5.7692  -44.3631 X   0  0  0  0  0  0  0  0  0  0  0  0
  1  2  1  0  0  0  0
  1 10  1  0  0  0  0
  2  3  1  0  0  0  0
  2  8  1  0  0  0  0
  3  4  1  0  0  0  0
  4  5  1  0  0  0  0
  5  6  1  0  0  0  0
  5  9  1  0  0  0  0
  6  7  1  0  0  0  0
  7  8  1  0  0  0  0
  8  9  1  0  0  0  0
M  END
> <Index>
22961

> <PropertyFieldDistance>
nan

$$$$
17552932
BBcorina  12272117083D 1   1.00000     0.00000 
CORINA 4.3.0 0026  30.10.2019
 11 11  0  0  0  0  0  0  0  0999 V2000
  -36.5972    7.6461  -42.6910 C   0  0  0  0  0  0  0  0  0  0  0  0
  -36.7846    6.4312  -43.4196 O   0  0  0  0  0  0  0  0  0  0  0  0
  -36.6293    5.2502  -42.6303 C   0  0  0  0  0  0  0  0  0  0  0  0
  -36.9723    4.0211  -43.4763 C   0  0  0  0  0  0  0  0  0  0  0  0
  -36.0215    3.9204  -44.5930 N   0  0  0  0  0  0  0  0  0  0  0  0
  -34.6419    3.8204  -44.0951 C   0  0  0  0  0  0  0  0  0  0  0  0
  -34.3222    5.0515  -43.2430 C   0  0  0  0  0  0  0  0  0  0  0  0
  -32.9158    4.9154  -42.6562 C   0  0  0  0  0  0  0  0  0  0  0  0
  -32.5738    6.1132  -41.9559 O   0  0  0  0  0  0  0  0  0  0  0  0
  -35.2751    5.1517  -42.1811 O   0  0  0  0  0  0  0  0  0  0  0  0
  -36.4046    2.5974  -45.6065 X   0  0  0  0  0  0  0  0  0  0  0  0
  1  2  1  0  0  0  0
  2  3  1  0  0  0  0
  3  4  1  0  0  0  0
  3 10  1  0  0  0  0
  4  5  1  0  0  0  0
  5  6  1  0  0  0  0
  5 11  1  0  0  0  0
  6  7  1  0  0  0  0
  7  8  1  0  0  0  0
  7 10  1  0  0  0  0
  8  9  1  0  0  0  0
M  END
> <Index>
22973

> <PropertyFieldDistance>
nan

$$$$
17608280
BBcorina  12272117083D 1   1.00000     0.00000 
CORINA 4.3.0 0026  30.10.2019
 11 12  0  0  0  0  0  0  0  0999 V2000
  -38.3600    2.0708  -43.8092 N   0  0  0  0  0  0  0  0  0  0  0  0
  -36.9959    2.6159  -43.8193 C   0  0  0  0  0  0  0  0  0  0  0  0
  -36.5335    2.8139  -45.2631 C   0  0  0  0  0  0  0  0  0  0  0  0
  -35.0795    2.7753  -45.4364 C   0  0  0  0  0  0  0  0  0  0  0  0
  -34.4087    3.9297  -44.6582 C   0  0  0  0  0  0  0  0  0  0  0  0
  -34.4413    3.6379  -43.1756 C   0  0  0  0  0  0  0  0  0  0  0  0
  -33.8325    2.3112  -42.6983 C   0  0  0  0  0  0  0  0  0  0  0  0
  -33.0999    3.6252  -42.4265 C   0  0  0  0  0  0  0  0  0  0  0  0
  -35.6517    4.1479  -42.3633 C   0  0  0  0  0  0  0  0  0  0  0  0
  -36.9796    3.9503  -43.1187 C   0  0  0  0  0  0  0  0  0  0  0  0
  -38.3368    0.3610  -43.8186 X   0  0  0  0  0  0  0  0  0  0  0  0
  1  2  1  0  0  0  0
  1 11  1  0  0  0  0
  2  3  1  0  0  0  0
  2 10  1  0  0  0  0
  3  4  1  0  0  0  0
  4  5  1  0  0  0  0
  5  6  1  0  0  0  0
  6  7  1  0  0  0  0
  6  8  1  0  0  0  0
  6  9  1  0  0  0  0
  7  8  1  0  0  0  0
  9 10  1  0  0  0  0
M  END
> <Index>
22981

> <PropertyFieldDistance>
nan

$$$$
17567724
BBcorina  12272117083D 1   1.00000     0.00000 
CORINA 4.3.0 0026  30.10.2019
 13 14  0  0  0  0  0  0  0  0999 V2000
  -35.6304    6.7659  -44.1231 F   0  0  0  0  0  0  0  0  0  0  0  0
  -35.3833    6.0133  -42.9700 C   0  0  0  0  0  0  0  0  0  0  0  0
  -34.9936    6.8647  -41.9306 F   0  0  0  0  0  0  0  0  0  0  0  0
  -36.6554    5.2624  -42.5667 C   0  0  0  0  0  0  0  0  0  0  0  0
  -37.0433    4.2898  -43.6827 C   0  0  0  0  0  0  0  0  0  0  0  0
  -35.9453    3.3417  -43.9109 N   0  0  0  0  0  0  0  0  0  0  0  0
  -34.7262    4.0357  -44.3451 C   0  0  0  0  0  0  0  0  0  0  0  0
  -34.2691    5.0007  -43.2489 C   0  0  0  0  0  0  0  0  0  0  0  0
  -36.3354    2.3075  -44.8786 C   0  0  0  0  0  0  0  0  0  0  0  0
  -35.2126    1.3047  -45.2000 C   0  0  0  0  0  0  0  0  0  0  0  0
  -35.6531    1.4142  -46.6083 N   0  0  0  0  0  0  0  0  0  0  0  0
  -36.2226    2.7581  -46.3462 C   0  0  0  0  0  0  0  0  0  0  0  0
  -34.3116    1.5122  -47.6642 X   0  0  0  0  0  0  0  0  0  0  0  0
  1  2  1  0  0  0  0
  2  3  1  0  0  0  0
  2  4  1  0  0  0  0
  2  8  1  0  0  0  0
  4  5  1  0  0  0  0
  5  6  1  0  0  0  0
  6  7  1  0  0  0  0
  6  9  1  0  0  0  0
  7  8  1  0  0  0  0
  9 10  1  0  0  0  0
  9 12  1  0  0  0  0
 10 11  1  0  0  0  0
 11 12  1  0  0  0  0
 11 13  1  0  0  0  0
M  END
> <Index>
22986

> <PropertyFieldDistance>
nan

$$$$
7692176
BBcorina  12272117083D 1   1.00000     0.00000 
CORINA 4.3.0 0026  30.10.2019
 15 16  0  0  0  0  0  0  0  0999 V2000
  -34.9571    6.9442  -41.8334 C   0  0  0  0  0  0  0  0  0  0  0  0
  -35.3835    6.0131  -42.9701 C   0  0  0  0  0  0  0  0  0  0  0  0
  -36.6556    5.2623  -42.5668 C   0  0  0  0  0  0  0  0  0  0  0  0
  -37.0434    4.2896  -43.6828 C   0  0  0  0  0  0  0  0  0  0  0  0
  -35.9455    3.3415  -43.9110 N   0  0  0  0  0  0  0  0  0  0  0  0
  -34.7264    4.0354  -44.3452 C   0  0  0  0  0  0  0  0  0  0  0  0
  -34.2682    5.0015  -43.2486 C   0  0  0  0  0  0  0  0  0  0  0  0
  -36.3356    2.3073  -44.8787 C   0  0  0  0  0  0  0  0  0  0  0  0
  -35.1688    1.3406  -45.0901 C   0  0  0  0  0  0  0  0  0  0  0  0
  -35.5751    0.2634  -46.0979 C   0  0  0  0  0  0  0  0  0  0  0  0
  -36.7843   -0.5059  -45.5624 C   0  0  0  0  0  0  0  0  0  0  0  0
  -37.9512    0.4609  -45.3510 C   0  0  0  0  0  0  0  0  0  0  0  0
  -37.5449    1.5379  -44.3432 C   0  0  0  0  0  0  0  0  0  0  0  0
  -37.1744   -1.5400  -46.5301 N   0  0  0  0  0  0  0  0  0  0  0  0
  -37.4848   -0.8561  -48.0663 X   0  0  0  0  0  0  0  0  0  0  0  0
  1  2  1  0  0  0  0
  2  3  1  0  0  0  0
  2  7  1  0  0  0  0
  3  4  1  0  0  0  0
  4  5  1  0  0  0  0
  5  6  1  0  0  0  0
  5  8  1  0  0  0  0
  6  7  1  0  0  0  0
  8  9  1  0  0  0  0
  8 13  1  0  0  0  0
  9 10  1  0  0  0  0
 10 11  1  0  0  0  0
 11 12  1  0  0  0  0
 11 14  1  0  0  0  0
 12 13  1  0  0  0  0
 14 15  1  0  0  0  0
M  END
> <Index>
23000

> <PropertyFieldDistance>
nan

$$$$
17539384
BBcorina  12272117083D 1   1.00000     0.00000 
CORINA 4.3.0 0026  30.10.2019
 13 14  0  0  0  0  0  0  0  0999 V2000
  -36.2487    2.2632  -44.7878 C   0  0  0  0  0  0  0  0  0  0  0  0
  -36.0833    3.6717  -44.4044 N   0  0  0  0  0  0  0  0  0  0  0  0
  -36.9318    4.0070  -43.2549 C   0  0  0  0  0  0  0  0  0  0  0  0
  -36.6265    5.4478  -42.8253 C   0  0  0  0  0  0  0  0  0  0  0  0
  -35.2622    5.4990  -42.3953 O   0  0  0  0  0  0  0  0  0  0  0  0
  -34.3468    4.8750  -43.1890 C   0  0  0  0  0  0  0  0  0  0  0  0
  -33.0009    5.1509  -42.9965 C   0  0  0  0  0  0  0  0  0  0  0  0
  -32.0436    4.5301  -43.7758 C   0  0  0  0  0  0  0  0  0  0  0  0
  -32.4283    3.6303  -44.7605 C   0  0  0  0  0  0  0  0  0  0  0  0
  -31.4604    3.0043  -45.5537 N   0  0  0  0  0  0  0  0  0  0  0  0
  -33.7723    3.3482  -44.9540 C   0  0  0  0  0  0  0  0  0  0  0  0
  -34.7377    3.9730  -44.1718 C   0  0  0  0  0  0  0  0  0  0  0  0
  -29.8030    3.3477  -45.3104 X   0  0  0  0  0  0  0  0  0  0  0  0
  1  2  1  0  0  0  0
  2  3  1  0  0  0  0
  2 12  1  0  0  0  0
  3  4  1  0  0  0  0
  4  5  1  0  0  0  0
  5  6  1  0  0  0  0
  6  7  2  0  0  0  0
  6 12  1  0  0  0  0
  7  8  1  0  0  0  0
  8  9  2  0  0  0  0
  9 10  1  0  0  0  0
  9 11  1  0  0  0  0
 10 13  1  0  0  0  0
 11 12  2  0  0  0  0
M  END
> <Index>
23001

> <PropertyFieldDistance>
nan

$$$$
17611684
BBcorina  12272117083D 1   1.00000     0.00000 
CORINA 4.3.0 0026  30.10.2019
  9 10  0  0  0  0  0  0  0  0999 V2000
  -35.8316    0.7589  -44.7444 F   0  0  0  0  0  0  0  0  0  0  0  0
  -35.4178    2.0363  -44.3518 C   0  0  0  0  0  0  0  0  0  0  0  0
  -35.9717    3.1156  -45.3263 C   0  0  0  0  0  0  0  0  0  0  0  0
  -35.9738    4.4102  -44.4875 C   0  0  0  0  0  0  0  0  0  0  0  0
  -34.7964    4.6786  -43.5480 C   0  0  0  0  0  0  0  0  0  0  0  0
  -36.0468    3.9781  -43.0124 C   0  0  0  0  0  0  0  0  0  0  0  0
  -36.0718    2.4357  -43.0058 C   0  0  0  0  0  0  0  0  0  0  0  0
  -35.2879    1.9136  -41.8784 N   0  0  0  0  0  0  0  0  0  0  0  0
  -33.7000    2.5481  -41.8902 X   0  0  0  0  0  0  0  0  0  0  0  0
  1  2  1  0  0  0  0
  2  3  1  0  0  0  0
  2  7  1  0  0  0  0
  3  4  1  0  0  0  0
  4  5  1  0  0  0  0
  4  6  1  0  0  0  0
  5  6  1  0  0  0  0
  6  7  1  0  0  0  0
  7  8  1  0  0  0  0
  8  9  1  0  0  0  0
M  END
> <Index>
23006

> <PropertyFieldDistance>
nan

$$$$
17611812
BBcorina  12272117083D 1   1.00000     0.00000 
CORINA 4.3.0 0026  30.10.2019
 10 11  0  0  0  0  0  0  0  0999 V2000
  -37.2073    4.3644  -45.9413 N   0  0  0  0  0  0  0  0  0  0  0  0
  -36.5373    3.8462  -44.7411 C   0  0  0  0  0  0  0  0  0  0  0  0
  -36.5163    2.2977  -44.7496 C   0  0  0  0  0  0  0  0  0  0  0  0
  -35.3266    1.9285  -43.8408 C   0  0  0  0  0  0  0  0  0  0  0  0
  -35.8335    1.7719  -42.3929 C   0  0  0  0  0  0  0  0  0  0  0  0
  -34.7473    2.4617  -41.5312 C   0  0  0  0  0  0  0  0  0  0  0  0
  -34.3489    3.6824  -42.3968 C   0  0  0  0  0  0  0  0  0  0  0  0
  -34.3783    3.1489  -43.8433 C   0  0  0  0  0  0  0  0  0  0  0  0
  -35.0317    4.2082  -44.7535 C   0  0  0  0  0  0  0  0  0  0  0  0
  -37.9669    5.8625  -45.6205 X   0  0  0  0  0  0  0  0  0  0  0  0
  1  2  1  0  0  0  0
  1 10  1  0  0  0  0
  2  3  1  0  0  0  0
  2  9  1  0  0  0  0
  3  4  1  0  0  0  0
  4  5  1  0  0  0  0
  4  8  1  0  0  0  0
  5  6  1  0  0  0  0
  6  7  1  0  0  0  0
  7  8  1  0  0  0  0
  8  9  1  0  0  0  0
M  END
> <Index>
23007

> <PropertyFieldDistance>
nan

$$$$
5730302
BBcorina  12272117083D 1   1.00000     0.00000 
CORINA 4.3.0 0026  30.10.2019
 12 12  0  0  0  0  0  0  0  0999 V2000
  -33.4351    7.0864  -41.6254 N   0  0  0  0  0  0  0  0  0  0  0  0
  -34.8198    7.0070  -42.1095 C   0  0  0  0  0  0  0  0  0  0  0  0
  -35.1680    5.5503  -42.4222 C   0  0  0  0  0  0  0  0  0  0  0  0
  -36.6465    5.4489  -42.8073 C   0  0  0  0  0  0  0  0  0  0  0  0
  -36.9744    4.0003  -43.1761 C   0  0  0  0  0  0  0  0  0  0  0  0
  -36.1276    3.5757  -44.2981 N   0  0  0  0  0  0  0  0  0  0  0  0
  -36.5099    2.2379  -44.7694 C   0  0  0  0  0  0  0  0  0  0  0  0
  -35.8125    1.9447  -46.0321 C   0  0  0  0  0  0  0  0  0  0  0  0
  -35.2743    1.7185  -47.0066 N   0  0  0  0  0  0  0  0  0  0  0  0
  -34.7051    3.6195  -43.9361 C   0  0  0  0  0  0  0  0  0  0  0  0
  -34.3095    5.0568  -43.5900 C   0  0  0  0  0  0  0  0  0  0  0  0
  -33.0042    8.7011  -41.2636 X   0  0  0  0  0  0  0  0  0  0  0  0
  1  2  1  0  0  0  0
  1 12  1  0  0  0  0
  2  3  1  0  0  0  0
  3  4  1  0  0  0  0
  3 11  1  0  0  0  0
  4  5  1  0  0  0  0
  5  6  1  0  0  0  0
  6  7  1  0  0  0  0
  6 10  1  0  0  0  0
  7  8  1  0  0  0  0
  8  9  3  0  0  0  0
 10 11  1  0  0  0  0
M  END
> <Index>
23017

> <PropertyFieldDistance>
nan

$$$$
11973178
BBcorina  12272117083D 1   1.00000     0.00000 
CORINA 4.3.0 0026  30.10.2019
 10 10  0  0  0  0  0  0  0  0999 V2000
  -34.9478    6.3489  -41.3402 O   0  0  0  0  0  0  0  0  0  0  0  0
  -35.2462    5.1676  -42.0870 C   0  0  0  0  0  0  0  0  0  0  0  0
  -36.6793    5.2476  -42.6202 C   0  0  0  0  0  0  0  0  0  0  0  0
  -36.9723    4.0086  -43.4695 C   0  0  0  0  0  0  0  0  0  0  0  0
  -36.0191    3.9415  -44.5845 N   0  0  0  0  0  0  0  0  0  0  0  0
  -34.6396    3.8163  -44.0970 C   0  0  0  0  0  0  0  0  0  0  0  0
  -34.2770    5.0496  -43.2665 C   0  0  0  0  0  0  0  0  0  0  0  0
  -32.9694    4.9208  -42.7856 F   0  0  0  0  0  0  0  0  0  0  0  0
  -34.3703    6.1944  -44.0652 F   0  0  0  0  0  0  0  0  0  0  0  0
  -36.4112    2.6624  -45.6495 X   0  0  0  0  0  0  0  0  0  0  0  0
  1  2  1  0  0  0  0
  2  3  1  0  0  0  0
  2  7  1  0  0  0  0
  3  4  1  0  0  0  0
  4  5  1  0  0  0  0
  5  6  1  0  0  0  0
  5 10  1  0  0  0  0
  6  7  1  0  0  0  0
  7  8  1  0  0  0  0
  7  9  1  0  0  0  0
M  END
> <Index>
23018

> <PropertyFieldDistance>
nan

$$$$
16608340
BBcorina  12272117083D 1   1.00000     0.00000 
CORINA 4.3.0 0026  30.10.2019
  7  7  0  0  0  0  0  0  0  0999 V2000
  -36.3259    2.3168  -44.8080 N   0  0  0  0  0  0  0  0  0  0  0  0
  -36.0199    3.7159  -44.5571 N   0  0  0  0  0  0  0  0  0  0  0  0
  -37.0825    4.3543  -43.7587 C   0  0  0  0  0  0  0  0  0  0  0  0
  -36.4170    4.9364  -42.4940 C   0  0  0  0  0  0  0  0  0  0  0  0
  -34.9334    5.0924  -42.9200 C   0  0  0  0  0  0  0  0  0  0  0  0
  -34.7384    3.8564  -43.8332 C   0  0  0  0  0  0  0  0  0  0  0  0
  -36.4351    2.0048  -46.4858 X   0  0  0  0  0  0  0  0  0  0  0  0
  1  2  1  0  0  0  0
  1  7  1  0  0  0  0
  2  3  1  0  0  0  0
  2  6  1  0  0  0  0
  3  4  1  0  0  0  0
  4  5  1  0  0  0  0
  5  6  1  0  0  0  0
M  END
> <Index>
23019

> <PropertyFieldDistance>
nan

$$$$
8930200
BBcorina  12272117083D 1   1.00000     0.00000 
CORINA 4.3.0 0026  30.10.2019
  9  9  0  0  0  0  0  0  0  0999 V2000
  -36.3106    2.2196  -44.9580 C   0  0  0  0  0  0  0  0  0  0  0  0
  -36.0459    3.4351  -44.1843 N   0  0  0  0  0  0  0  0  0  0  0  0
  -37.0879    4.3195  -43.6493 C   0  0  0  0  0  0  0  0  0  0  0  0
  -36.3866    5.1796  -42.5746 C   0  0  0  0  0  0  0  0  0  0  0  0
  -34.9186    5.1555  -43.0601 C   0  0  0  0  0  0  0  0  0  0  0  0
  -34.6357    6.3267  -43.9004 N   0  0  0  0  0  0  0  0  0  0  0  0
  -34.8142    3.8834  -43.8723 C   0  0  0  0  0  0  0  0  0  0  0  0
  -33.7745    3.3484  -44.1945 O   0  0  0  0  0  0  0  0  0  0  0  0
  -32.9841    6.7607  -43.8108 X   0  0  0  0  0  0  0  0  0  0  0  0
  1  2  1  0  0  0  0
  2  3  1  0  0  0  0
  2  7  1  0  0  0  0
  3  4  1  0  0  0  0
  4  5  1  0  0  0  0
  5  6  1  0  0  0  0
  5  7  1  0  0  0  0
  6  9  1  0  0  0  0
  7  8  2  0  0  0  0
M  END
> <Index>
23020

> <PropertyFieldDistance>
nan

$$$$
13103786
BBcorina  12272117083D 1   1.00000     0.00000 
CORINA 4.3.0 0026  30.10.2019
 10 10  0  0  0  0  0  0  0  0999 V2000
  -35.3539    5.7769  -43.1717 C   0  0  0  0  0  0  0  0  0  0  0  0
  -35.3331    4.2470  -43.1801 C   0  0  0  0  0  0  0  0  0  0  0  0
  -34.6420    3.7737  -42.0224 O   0  0  0  0  0  0  0  0  0  0  0  0
  -36.7685    3.7175  -43.1692 C   0  0  0  0  0  0  0  0  0  0  0  0
  -36.7478    2.1876  -43.1776 C   0  0  0  0  0  0  0  0  0  0  0  0
  -36.0316    1.6942  -44.4364 C   0  0  0  0  0  0  0  0  0  0  0  0
  -34.5962    2.2238  -44.4473 C   0  0  0  0  0  0  0  0  0  0  0  0
  -34.6170    3.7536  -44.4389 C   0  0  0  0  0  0  0  0  0  0  0  0
  -36.0117    0.2254  -44.4445 N   0  0  0  0  0  0  0  0  0  0  0  0
  -36.0186   -0.3788  -46.0442 X   0  0  0  0  0  0  0  0  0  0  0  0
  1  2  1  0  0  0  0
  2  3  1  0  0  0  0
  2  4  1  0  0  0  0
  2  8  1  0  0  0  0
  4  5  1  0  0  0  0
  5  6  1  0  0  0  0
  6  7  1  0  0  0  0
  6  9  1  0  0  0  0
  7  8  1  0  0  0  0
  9 10  1  0  0  0  0
M  END
> <Index>
23021

> <PropertyFieldDistance>
nan

$$$$
12850996
BBcorina  12272117083D 1   1.00000     0.00000 
CORINA 4.3.0 0026  30.10.2019
 12 12  0  0  0  0  0  0  0  0999 V2000
  -36.2155    8.0964  -38.3383 C   0  0  0  0  0  0  0  0  0  0  0  0
  -35.3636    7.8920  -39.4671 O   0  0  0  0  0  0  0  0  0  0  0  0
  -35.6601    6.7224  -40.2081 N   0  0  0  0  0  0  0  0  0  0  0  0
  -34.9307    6.4122  -41.2983 C   0  0  0  0  0  0  0  0  0  0  0  0
  -34.0204    7.1350  -41.6444 O   0  0  0  0  0  0  0  0  0  0  0  0
  -35.2462    5.1675  -42.0868 C   0  0  0  0  0  0  0  0  0  0  0  0
  -36.6793    5.2476  -42.6203 C   0  0  0  0  0  0  0  0  0  0  0  0
  -36.9723    4.0086  -43.4694 C   0  0  0  0  0  0  0  0  0  0  0  0
  -36.0191    3.9414  -44.5845 N   0  0  0  0  0  0  0  0  0  0  0  0
  -34.6396    3.8164  -44.0971 C   0  0  0  0  0  0  0  0  0  0  0  0
  -34.2769    5.0496  -43.2664 C   0  0  0  0  0  0  0  0  0  0  0  0
  -36.4111    2.6624  -45.6495 X   0  0  0  0  0  0  0  0  0  0  0  0
  1  2  1  0  0  0  0
  2  3  1  0  0  0  0
  3  4  1  0  0  0  0
  4  5  2  0  0  0  0
  4  6  1  0  0  0  0
  6  7  1  0  0  0  0
  6 11  1  0  0  0  0
  7  8  1  0  0  0  0
  8  9  1  0  0  0  0
  9 10  1  0  0  0  0
  9 12  1  0  0  0  0
 10 11  1  0  0  0  0
M  END
> <Index>
23031

> <PropertyFieldDistance>
nan

$$$$
17791570
BBcorina  12272117083D 1   1.00000     0.00000 
CORINA 4.3.0 0026  30.10.2019
 15 16  0  0  0  0  0  0  0  0999 V2000
  -33.4288    7.0909  -41.6347 N   0  0  0  0  0  0  0  0  0  0  0  0
  -34.8145    7.0119  -42.1159 C   0  0  0  0  0  0  0  0  0  0  0  0
  -35.1650    5.5548  -42.4241 C   0  0  0  0  0  0  0  0  0  0  0  0
  -36.6444    5.4542  -42.8061 C   0  0  0  0  0  0  0  0  0  0  0  0
  -36.9747    4.0050  -43.1705 C   0  0  0  0  0  0  0  0  0  0  0  0
  -36.1305    3.5765  -44.2930 N   0  0  0  0  0  0  0  0  0  0  0  0
  -36.5153    2.2379  -44.7601 C   0  0  0  0  0  0  0  0  0  0  0  0
  -35.8041    1.9335  -46.0534 C   0  0  0  0  0  0  0  0  0  0  0  0
  -36.3435    2.2423  -47.2903 C   0  0  0  0  0  0  0  0  0  0  0  0
  -35.5823    1.9102  -48.3342 C   0  0  0  0  0  0  0  0  0  0  0  0
  -34.1007    1.1517  -47.7660 S   0  0  0  0  0  0  0  0  0  0  0  0
  -34.6096    1.3410  -46.0932 C   0  0  0  0  0  0  0  0  0  0  0  0
  -34.7073    3.6195  -43.9338 C   0  0  0  0  0  0  0  0  0  0  0  0
  -34.3093    5.0572  -43.5922 C   0  0  0  0  0  0  0  0  0  0  0  0
  -32.9952    8.7060  -41.2778 X   0  0  0  0  0  0  0  0  0  0  0  0
  1  2  1  0  0  0  0
  1 15  1  0  0  0  0
  2  3  1  0  0  0  0
  3  4  1  0  0  0  0
  3 14  1  0  0  0  0
  4  5  1  0  0  0  0
  5  6  1  0  0  0  0
  6  7  1  0  0  0  0
  6 13  1  0  0  0  0
  7  8  1  0  0  0  0
  8  9  1  0  0  0  0
  8 12  2  0  0  0  0
  9 10  2  0  0  0  0
 10 11  1  0  0  0  0
 11 12  1  0  0  0  0
 13 14  1  0  0  0  0
M  END
> <Index>
23043

> <PropertyFieldDistance>
nan

$$$$
17761044
BBcorina  12272117083D 1   1.00000     0.00000 
CORINA 4.3.0 0026  30.10.2019
 10 10  0  0  0  0  0  0  0  0999 V2000
  -34.4611    1.5834  -41.4963 N   0  0  0  0  0  0  0  0  0  0  0  0
  -35.2450    2.1055  -42.6236 C   0  0  0  0  0  0  0  0  0  0  0  0
  -35.8737    3.4440  -42.2312 C   0  0  0  0  0  0  0  0  0  0  0  0
  -36.6901    3.9878  -43.4054 C   0  0  0  0  0  0  0  0  0  0  0  0
  -35.7736    4.1896  -44.6137 C   0  0  0  0  0  0  0  0  0  0  0  0
  -35.1449    2.8511  -45.0062 C   0  0  0  0  0  0  0  0  0  0  0  0
  -34.3285    2.3074  -43.8320 C   0  0  0  0  0  0  0  0  0  0  0  0
  -36.5591    4.7128  -45.7434 C   0  0  0  0  0  0  0  0  0  0  0  0
  -37.1855    5.1300  -46.6443 C   0  0  0  0  0  0  0  0  0  0  0  0
  -34.4379   -0.1264  -41.5057 X   0  0  0  0  0  0  0  0  0  0  0  0
  1  2  1  0  0  0  0
  1 10  1  0  0  0  0
  2  3  1  0  0  0  0
  2  7  1  0  0  0  0
  3  4  1  0  0  0  0
  4  5  1  0  0  0  0
  5  6  1  0  0  0  0
  5  8  1  0  0  0  0
  6  7  1  0  0  0  0
  8  9  3  0  0  0  0
M  END
> <Index>
23049

> <PropertyFieldDistance>
nan

$$$$
17838652
BBcorina  12272117083D 1   1.00000     0.00000 
CORINA 4.3.0 0026  30.10.2019
 10 11  0  0  0  0  0  0  0  0999 V2000
  -35.0853    2.3739  -40.2047 F   0  0  0  0  0  0  0  0  0  0  0  0
  -35.9366    2.8554  -41.2051 C   0  0  0  0  0  0  0  0  0  0  0  0
  -37.2670    2.6520  -40.8230 F   0  0  0  0  0  0  0  0  0  0  0  0
  -35.6879    4.3510  -41.4103 C   0  0  0  0  0  0  0  0  0  0  0  0
  -36.4313    5.0387  -42.5571 C   0  0  0  0  0  0  0  0  0  0  0  0
  -37.0719    4.1506  -43.6453 C   0  0  0  0  0  0  0  0  0  0  0  0
  -35.9864    3.9297  -44.6352 N   0  0  0  0  0  0  0  0  0  0  0  0
  -34.7681    3.7441  -43.8055 C   0  0  0  0  0  0  0  0  0  0  0  0
  -34.9157    4.7713  -42.6625 C   0  0  0  0  0  0  0  0  0  0  0  0
  -36.2971    2.5429  -45.5862 X   0  0  0  0  0  0  0  0  0  0  0  0
  1  2  1  0  0  0  0
  2  3  1  0  0  0  0
  2  4  1  0  0  0  0
  4  5  1  0  0  0  0
  4  9  1  0  0  0  0
  5  6  1  0  0  0  0
  5  9  1  0  0  0  0
  6  7  1  0  0  0  0
  7  8  1  0  0  0  0
  7 10  1  0  0  0  0
  8  9  1  0  0  0  0
M  END
> <Index>
23050

> <PropertyFieldDistance>
nan

$$$$
11968270
BBcorina  12272117083D 1   1.00000     0.00000 
CORINA 4.3.0 0026  30.10.2019
 14 15  0  0  0  0  0  0  0  0999 V2000
  -34.9754    6.8834  -41.8687 N   0  0  0  0  0  0  0  0  0  0  0  0
  -35.3855    5.9978  -42.9668 C   0  0  0  0  0  0  0  0  0  0  0  0
  -36.6590    5.2461  -42.5695 C   0  0  0  0  0  0  0  0  0  0  0  0
  -37.0468    4.2809  -43.6919 C   0  0  0  0  0  0  0  0  0  0  0  0
  -35.9498    3.3328  -43.9248 N   0  0  0  0  0  0  0  0  0  0  0  0
  -34.7293    4.0278  -44.3533 C   0  0  0  0  0  0  0  0  0  0  0  0
  -34.2722    4.9856  -43.2506 C   0  0  0  0  0  0  0  0  0  0  0  0
  -36.3176    2.3646  -44.8429 C   0  0  0  0  0  0  0  0  0  0  0  0
  -35.4462    1.4230  -45.1739 N   0  0  0  0  0  0  0  0  0  0  0  0
  -35.7677    0.4799  -46.0439 C   0  0  0  0  0  0  0  0  0  0  0  0
  -37.0327    0.4853  -46.6103 C   0  0  0  0  0  0  0  0  0  0  0  0
  -37.9195    1.4848  -46.2418 C   0  0  0  0  0  0  0  0  0  0  0  0
  -37.5345    2.3981  -45.3659 N   0  0  0  0  0  0  0  0  0  0  0  0
  -34.6621    5.9897  -40.4450 X   0  0  0  0  0  0  0  0  0  0  0  0
  1  2  1  0  0  0  0
  1 14  1  0  0  0  0
  2  3  1  0  0  0  0
  2  7  1  0  0  0  0
  3  4  1  0  0  0  0
  4  5  1  0  0  0  0
  5  6  1  0  0  0  0
  5  8  1  0  0  0  0
  6  7  1  0  0  0  0
  8  9  2  0  0  0  0
  8 13  1  0  0  0  0
  9 10  1  0  0  0  0
 10 11  2  0  0  0  0
 11 12  1  0  0  0  0
 12 13  2  0  0  0  0
M  END
> <Index>
23089

> <PropertyFieldDistance>
nan

$$$$
10862930
BBcorina  12272117083D 1   1.00000     0.00000 
CORINA 4.3.0 0026  30.10.2019
 11 11  0  0  0  0  0  0  0  0999 V2000
  -37.7768    5.5554  -44.3929 C   0  0  0  0  0  0  0  0  0  0  0  0
  -37.1115    4.3960  -43.6486 C   0  0  0  0  0  0  0  0  0  0  0  0
  -38.1788    3.4321  -43.1265 C   0  0  0  0  0  0  0  0  0  0  0  0
  -36.2707    4.9398  -42.4743 C   0  0  0  0  0  0  0  0  0  0  0  0
  -34.8345    4.9933  -43.0663 C   0  0  0  0  0  0  0  0  0  0  0  0
  -34.8289    3.7410  -43.9781 C   0  0  0  0  0  0  0  0  0  0  0  0
  -36.1902    3.6827  -44.5520 N   0  0  0  0  0  0  0  0  0  0  0  0
  -36.6188    2.2917  -44.7500 C   0  0  0  0  0  0  0  0  0  0  0  0
  -35.7358    1.6320  -45.8112 C   0  0  0  0  0  0  0  0  0  0  0  0
  -36.2393    0.2819  -46.0967 N   0  0  0  0  0  0  0  0  0  0  0  0
  -35.2786   -0.4927  -47.2805 X   0  0  0  0  0  0  0  0  0  0  0  0
  1  2  1  0  0  0  0
  2  3  1  0  0  0  0
  2  4  1  0  0  0  0
  2  7  1  0  0  0  0
  4  5  1  0  0  0  0
  5  6  1  0  0  0  0
  6  7  1  0  0  0  0
  7  8  1  0  0  0  0
  8  9  1  0  0  0  0
  9 10  1  0  0  0  0
 10 11  1  0  0  0  0
M  END
> <Index>
23090

> <PropertyFieldDistance>
nan

$$$$
16953876
BBcorina  12272117083D 1   1.00000     0.00000 
CORINA 4.3.0 0026  30.10.2019
 13 13  0  0  0  0  0  0  0  0999 V2000
  -33.7329    1.3496  -45.2564 C   0  0  0  0  0  0  0  0  0  0  0  0
  -34.6420    1.9514  -46.3300 C   0  0  0  0  0  0  0  0  0  0  0  0
  -36.1057    1.6528  -45.9862 C   0  0  0  0  0  0  0  0  0  0  0  0
  -36.3935    2.1757  -44.5742 C   0  0  0  0  0  0  0  0  0  0  0  0
  -36.0173    3.5932  -44.4908 N   0  0  0  0  0  0  0  0  0  0  0  0
  -37.0156    2.3647  -46.9856 C   0  0  0  0  0  0  0  0  0  0  0  0
  -38.4721    1.9634  -46.7642 C   0  0  0  0  0  0  0  0  0  0  0  0
  -39.1304    1.6152  -48.0989 C   0  0  0  0  0  0  0  0  0  0  0  0
  -38.3344    0.5332  -48.8257 C   0  0  0  0  0  0  0  0  0  0  0  0
  -37.9022   -0.5577  -47.8469 C   0  0  0  0  0  0  0  0  0  0  0  0
  -36.4357   -0.3542  -47.4629 C   0  0  0  0  0  0  0  0  0  0  0  0
  -36.3390    0.1441  -46.0229 C   0  0  0  0  0  0  0  0  0  0  0  0
  -36.1680    4.1740  -42.8895 X   0  0  0  0  0  0  0  0  0  0  0  0
  1  2  1  0  0  0  0
  2  3  1  0  0  0  0
  3  4  1  0  0  0  0
  3  6  1  0  0  0  0
  3 12  1  0  0  0  0
  4  5  1  0  0  0  0
  5 13  1  0  0  0  0
  6  7  1  0  0  0  0
  7  8  1  0  0  0  0
  8  9  1  0  0  0  0
  9 10  1  0  0  0  0
 10 11  1  0  0  0  0
 11 12  1  0  0  0  0
M  END
> <Index>
23115

> <PropertyFieldDistance>
nan

$$$$
17802102
BBcorina  12272117083D 1   1.00000     0.00000 
CORINA 4.3.0 0026  30.10.2019
 14 15  0  0  0  0  0  0  0  0999 V2000
  -33.1738    5.7266  -42.7565 N   0  0  0  0  0  0  0  0  0  0  0  0
  -34.3485    4.8554  -42.8946 C   0  0  0  0  0  0  0  0  0  0  0  0
  -35.6071    5.6273  -42.4920 C   0  0  0  0  0  0  0  0  0  0  0  0
  -36.8275    4.7106  -42.6040 C   0  0  0  0  0  0  0  0  0  0  0  0
  -36.9854    4.2527  -44.0574 C   0  0  0  0  0  0  0  0  0  0  0  0
  -35.7261    3.6377  -44.4989 N   0  0  0  0  0  0  0  0  0  0  0  0
  -34.4778    4.3984  -44.3511 C   0  0  0  0  0  0  0  0  0  0  0  0
  -35.7160    2.3987  -45.0291 C   0  0  0  0  0  0  0  0  0  0  0  0
  -34.6699    1.9020  -45.3899 O   0  0  0  0  0  0  0  0  0  0  0  0
  -37.0043    1.6304  -45.1740 C   0  0  0  0  0  0  0  0  0  0  0  0
  -36.8232    0.2354  -45.7952 C   0  0  0  0  0  0  0  0  0  0  0  0
  -37.8624   -0.2660  -44.7785 C   0  0  0  0  0  0  0  0  0  0  0  0
  -37.4422    0.9136  -43.8858 C   0  0  0  0  0  0  0  0  0  0  0  0
  -32.4987    5.6015  -41.1904 X   0  0  0  0  0  0  0  0  0  0  0  0
  1  2  1  0  0  0  0
  1 14  1  0  0  0  0
  2  3  1  0  0  0  0
  2  7  1  0  0  0  0
  3  4  1  0  0  0  0
  4  5  1  0  0  0  0
  5  6  1  0  0  0  0
  6  7  1  0  0  0  0
  6  8  1  0  0  0  0
  8  9  2  0  0  0  0
  8 10  1  0  0  0  0
 10 11  1  0  0  0  0
 10 13  1  0  0  0  0
 11 12  1  0  0  0  0
 12 13  1  0  0  0  0
M  END
> <Index>
23126

> <PropertyFieldDistance>
nan

$$$$
17802324
BBcorina  12272117083D 1   1.00000     0.00000 
CORINA 4.3.0 0026  30.10.2019
  9  9  0  0  0  0  0  0  0  0999 V2000
  -36.3065    2.3410  -44.9914 C   0  0  0  0  0  0  0  0  0  0  0  0
  -36.1461    3.3762  -43.9674 N   0  0  0  0  0  0  0  0  0  0  0  0
  -34.9904    3.5283  -43.1658 O   0  0  0  0  0  0  0  0  0  0  0  0
  -35.0045    4.8610  -42.6194 C   0  0  0  0  0  0  0  0  0  0  0  0
  -36.5137    5.1945  -42.5861 C   0  0  0  0  0  0  0  0  0  0  0  0
  -36.7403    6.6113  -42.9013 N   0  0  0  0  0  0  0  0  0  0  0  0
  -37.0848    4.3042  -43.6739 C   0  0  0  0  0  0  0  0  0  0  0  0
  -38.1804    4.4080  -44.1836 O   0  0  0  0  0  0  0  0  0  0  0  0
  -36.0867    7.0112  -44.4301 X   0  0  0  0  0  0  0  0  0  0  0  0
  1  2  1  0  0  0  0
  2  3  1  0  0  0  0
  2  7  1  0  0  0  0
  3  4  1  0  0  0  0
  4  5  1  0  0  0  0
  5  6  1  0  0  0  0
  5  7  1  0  0  0  0
  6  9  1  0  0  0  0
  7  8  2  0  0  0  0
M  END
> <Index>
23131

> <PropertyFieldDistance>
nan

$$$$
14058182
BBcorina  12272117083D 1   1.00000     0.00000 
CORINA 4.3.0 0026  30.10.2019
 12 12  0  0  0  0  0  0  0  0999 V2000
  -31.5202    6.2551  -40.3419 C   0  0  0  0  0  0  0  0  0  0  0  0
  -32.4733    5.5282  -41.1200 O   0  0  0  0  0  0  0  0  0  0  0  0
  -33.7095    6.2175  -41.3171 C   0  0  0  0  0  0  0  0  0  0  0  0
  -34.6481    5.3505  -42.1586 C   0  0  0  0  0  0  0  0  0  0  0  0
  -34.9877    4.1679  -41.4318 O   0  0  0  0  0  0  0  0  0  0  0  0
  -35.8995    6.1221  -42.4788 C   0  0  0  0  0  0  0  0  0  0  0  0
  -37.1501    5.2252  -42.5903 C   0  0  0  0  0  0  0  0  0  0  0  0
  -36.8628    3.9135  -43.3457 C   0  0  0  0  0  0  0  0  0  0  0  0
  -36.0141    4.1259  -44.4929 N   0  0  0  0  0  0  0  0  0  0  0  0
  -34.6116    3.8363  -44.1282 C   0  0  0  0  0  0  0  0  0  0  0  0
  -33.9487    4.9627  -43.4806 C   0  0  0  0  0  0  0  0  0  0  0  0
  -36.5157    3.1618  -45.8131 X   0  0  0  0  0  0  0  0  0  0  0  0
  1  2  1  0  0  0  0
  2  3  1  0  0  0  0
  3  4  1  0  0  0  0
  4  5  1  0  0  0  0
  4  6  1  0  0  0  0
  4 11  1  0  0  0  0
  6  7  1  0  0  0  0
  7  8  1  0  0  0  0
  8  9  1  0  0  0  0
  9 10  1  0  0  0  0
  9 12  1  0  0  0  0
 10 11  1  0  0  0  0
M  END
> <Index>
23132

> <PropertyFieldDistance>
nan

$$$$
13466528
BBcorina  12272117083D 1   1.00000     0.00000 
CORINA 4.3.0 0026  30.10.2019
  9  9  0  0  0  0  0  0  0  0999 V2000
  -32.7458    4.4517  -41.7928 O   0  0  0  0  0  0  0  0  0  0  0  0
  -34.0284    5.0792  -41.7370 C   0  0  0  0  0  0  0  0  0  0  0  0
  -35.0709    4.1676  -42.3876 C   0  0  0  0  0  0  0  0  0  0  0  0
  -35.1708    2.9282  -41.6833 O   0  0  0  0  0  0  0  0  0  0  0  0
  -36.4461    4.8706  -42.4556 C   0  0  0  0  0  0  0  0  0  0  0  0
  -37.0294    4.4814  -43.8266 C   0  0  0  0  0  0  0  0  0  0  0  0
  -36.0504    3.5865  -44.4810 N   0  0  0  0  0  0  0  0  0  0  0  0
  -34.7319    3.9246  -43.8797 C   0  0  0  0  0  0  0  0  0  0  0  0
  -36.0372    3.8262  -46.1741 X   0  0  0  0  0  0  0  0  0  0  0  0
  1  2  1  0  0  0  0
  2  3  1  0  0  0  0
  3  4  1  0  0  0  0
  3  5  1  0  0  0  0
  3  8  1  0  0  0  0
  5  6  1  0  0  0  0
  6  7  1  0  0  0  0
  7  8  1  0  0  0  0
  7  9  1  0  0  0  0
M  END
> <Index>
23146

> <PropertyFieldDistance>
nan

$$$$
12305468
BBcorina  12272117083D 1   1.00000     0.00000 
CORINA 4.3.0 0026  30.10.2019
 16 16  0  0  0  0  0  0  0  0999 V2000
  -38.3527    3.5657  -43.5067 C   0  0  0  0  0  0  0  0  0  0  0  0
  -37.1072    4.4092  -43.7859 C   0  0  0  0  0  0  0  0  0  0  0  0
  -36.6609    5.1080  -42.4977 C   0  0  0  0  0  0  0  0  0  0  0  0
  -35.3389    5.8369  -42.7493 C   0  0  0  0  0  0  0  0  0  0  0  0
  -34.2632    4.8233  -43.1467 C   0  0  0  0  0  0  0  0  0  0  0  0
  -34.6824    4.1213  -44.4421 C   0  0  0  0  0  0  0  0  0  0  0  0
  -36.0189    3.5405  -44.2542 N   0  0  0  0  0  0  0  0  0  0  0  0
  -36.2421    2.2354  -44.5064 C   0  0  0  0  0  0  0  0  0  0  0  0
  -37.3712    1.7902  -44.4495 O   0  0  0  0  0  0  0  0  0  0  0  0
  -35.2140    1.4252  -44.8216 O   0  0  0  0  0  0  0  0  0  0  0  0
  -35.5285    0.0316  -45.0807 C   0  0  0  0  0  0  0  0  0  0  0  0
  -36.5011   -0.0614  -46.2581 C   0  0  0  0  0  0  0  0  0  0  0  0
  -34.2436   -0.7266  -45.4196 C   0  0  0  0  0  0  0  0  0  0  0  0
  -36.1722   -0.5856  -43.8376 C   0  0  0  0  0  0  0  0  0  0  0  0
  -32.9871    5.5199  -43.3572 N   0  0  0  0  0  0  0  0  0  0  0  0
  -31.6645    4.5012  -42.9864 X   0  0  0  0  0  0  0  0  0  0  0  0
  1  2  1  0  0  0  0
  2  3  1  0  0  0  0
  2  7  1  0  0  0  0
  3  4  1  0  0  0  0
  4  5  1  0  0  0  0
  5  6  1  0  0  0  0
  5 15  1  0  0  0  0
  6  7  1  0  0  0  0
  7  8  1  0  0  0  0
  8  9  2  0  0  0  0
  8 10  1  0  0  0  0
 10 11  1  0  0  0  0
 11 12  1  0  0  0  0
 11 13  1  0  0  0  0
 11 14  1  0  0  0  0
 15 16  1  0  0  0  0
M  END
> <Index>
23148

> <PropertyFieldDistance>
nan

$$$$
16906662
BBcorina  12272117083D 1   1.00000     0.00000 
CORINA 4.3.0 0026  30.10.2019
 11 12  0  0  0  0  0  0  0  0999 V2000
  -36.0156    3.9536  -44.5850 N   0  0  0  0  0  0  0  0  0  0  0  0
  -36.9702    4.0078  -43.4698 C   0  0  0  0  0  0  0  0  0  0  0  0
  -36.6907    5.2413  -42.6139 C   0  0  0  0  0  0  0  0  0  0  0  0
  -35.2466    5.2348  -42.1266 C   0  0  0  0  0  0  0  0  0  0  0  0
  -34.2694    5.0523  -43.2820 C   0  0  0  0  0  0  0  0  0  0  0  0
  -34.6414    3.8085  -44.0869 C   0  0  0  0  0  0  0  0  0  0  0  0
  -34.2569    6.2975  -44.1705 C   0  0  0  0  0  0  0  0  0  0  0  0
  -35.9095    6.5225  -44.8925 S   0  0  0  0  0  0  0  0  0  0  0  0
  -35.9831    7.7956  -45.5195 O   0  0  0  0  0  0  0  0  0  0  0  0
  -36.9581    6.5100  -43.4258 C   0  0  0  0  0  0  0  0  0  0  0  0
  -36.4109    2.6919  -45.6694 X   0  0  0  0  0  0  0  0  0  0  0  0
  1  2  1  0  0  0  0
  1  6  1  0  0  0  0
  1 11  1  0  0  0  0
  2  3  1  0  0  0  0
  3  4  1  0  0  0  0
  3 10  1  0  0  0  0
  4  5  1  0  0  0  0
  5  6  1  0  0  0  0
  5  7  1  0  0  0  0
  7  8  1  0  0  0  0
  8  9  2  0  0  0  0
  8 10  1  0  0  0  0
M  END
> <Index>
23153

> <PropertyFieldDistance>
nan

$$$$
16970936
BBcorina  12272117083D 1   1.00000     0.00000 
CORINA 4.3.0 0026  30.10.2019
 12 13  0  0  0  0  0  0  0  0999 V2000
  -36.0173    3.5927  -44.4913 N   0  0  0  0  0  0  0  0  0  0  0  0
  -36.3933    2.1751  -44.5752 C   0  0  0  0  0  0  0  0  0  0  0  0
  -36.1059    1.6538  -45.9847 C   0  0  0  0  0  0  0  0  0  0  0  0
  -36.5781    0.2078  -46.2149 C   0  0  0  0  0  0  0  0  0  0  0  0
  -35.2764   -0.0067  -46.9975 C   0  0  0  0  0  0  0  0  0  0  0  0
  -34.6702    1.1325  -46.1678 C   0  0  0  0  0  0  0  0  0  0  0  0
  -35.3973    0.3205  -48.4845 C   0  0  0  0  0  0  0  0  0  0  0  0
  -34.0103    0.2534  -49.1301 C   0  0  0  0  0  0  0  0  0  0  0  0
  -33.4140   -1.1384  -48.9120 C   0  0  0  0  0  0  0  0  0  0  0  0
  -33.2509   -1.4005  -47.4138 C   0  0  0  0  0  0  0  0  0  0  0  0
  -34.6244   -1.3630  -46.7375 C   0  0  0  0  0  0  0  0  0  0  0  0
  -36.3230    4.2163  -42.9287 X   0  0  0  0  0  0  0  0  0  0  0  0
  1  2  1  0  0  0  0
  1 12  1  0  0  0  0
  2  3  1  0  0  0  0
  3  4  1  0  0  0  0
  3  6  1  0  0  0  0
  4  5  1  0  0  0  0
  5  6  1  0  0  0  0
  5  7  1  0  0  0  0
  5 11  1  0  0  0  0
  7  8  1  0  0  0  0
  8  9  1  0  0  0  0
  9 10  1  0  0  0  0
 10 11  1  0  0  0  0
M  END
> <Index>
23155

> <PropertyFieldDistance>
nan

$$$$
17793774
BBcorina  12272117083D 1   1.00000     0.00000 
CORINA 4.3.0 0026  30.10.2019
 11 11  0  0  0  0  0  0  0  0999 V2000
  -36.1446    0.8767  -46.8738 C   0  0  0  0  0  0  0  0  0  0  0  0
  -35.5665    1.7022  -45.7226 C   0  0  0  0  0  0  0  0  0  0  0  0
  -35.0281    0.8440  -44.7578 F   0  0  0  0  0  0  0  0  0  0  0  0
  -36.6764    2.5459  -45.0923 C   0  0  0  0  0  0  0  0  0  0  0  0
  -36.1212    3.3385  -43.9870 N   0  0  0  0  0  0  0  0  0  0  0  0
  -37.0937    4.3323  -43.5114 C   0  0  0  0  0  0  0  0  0  0  0  0
  -36.5086    5.0811  -42.3116 C   0  0  0  0  0  0  0  0  0  0  0  0
  -35.2497    5.7277  -42.7076 N   0  0  0  0  0  0  0  0  0  0  0  0
  -34.2773    4.7339  -43.1833 C   0  0  0  0  0  0  0  0  0  0  0  0
  -34.8625    3.9851  -44.3830 C   0  0  0  0  0  0  0  0  0  0  0  0
  -34.6035    6.6503  -41.4210 X   0  0  0  0  0  0  0  0  0  0  0  0
  1  2  1  0  0  0  0
  2  3  1  0  0  0  0
  2  4  1  0  0  0  0
  4  5  1  0  0  0  0
  5  6  1  0  0  0  0
  5 10  1  0  0  0  0
  6  7  1  0  0  0  0
  7  8  1  0  0  0  0
  8  9  1  0  0  0  0
  8 11  1  0  0  0  0
  9 10  1  0  0  0  0
M  END
> <Index>
23169

> <PropertyFieldDistance>
nan

$$$$
17310362
BBcorina  12272117083D 1   1.00000     0.00000 
CORINA 4.3.0 0026  30.10.2019
 10 11  0  0  0  0  0  0  0  0999 V2000
  -34.9976    7.7076  -41.8659 N   0  0  0  0  0  0  0  0  0  0  0  0
  -35.3765    7.4628  -43.2639 C   0  0  0  0  0  0  0  0  0  0  0  0
  -35.5573    5.9601  -43.4876 C   0  0  0  0  0  0  0  0  0  0  0  0
  -36.6625    5.2523  -42.6398 C   0  0  0  0  0  0  0  0  0  0  0  0
  -36.9656    3.9687  -43.4476 C   0  0  0  0  0  0  0  0  0  0  0  0
  -36.0176    4.0063  -44.6092 N   0  0  0  0  0  0  0  0  0  0  0  0
  -34.6469    3.7733  -44.0593 C   0  0  0  0  0  0  0  0  0  0  0  0
  -34.2948    5.0630  -43.2818 C   0  0  0  0  0  0  0  0  0  0  0  0
  -35.9994    5.4984  -44.9232 C   0  0  0  0  0  0  0  0  0  0  0  0
  -34.7851    9.3788  -41.5723 X   0  0  0  0  0  0  0  0  0  0  0  0
  1  2  1  0  0  0  0
  1 10  1  0  0  0  0
  2  3  1  0  0  0  0
  3  4  1  0  0  0  0
  3  8  1  0  0  0  0
  3  9  1  0  0  0  0
  4  5  1  0  0  0  0
  5  6  1  0  0  0  0
  6  7  1  0  0  0  0
  6  9  1  0  0  0  0
  7  8  1  0  0  0  0
M  END
> <Index>
23216

> <PropertyFieldDistance>
nan

$$$$
6389972
BBcorina  12272117083D 1   1.00000     0.00000 
CORINA 4.3.0 0026  30.10.2019
 12 12  0  0  0  0  0  0  0  0999 V2000
  -36.2800    4.1284  -43.1489 C   0  0  0  0  0  0  0  0  0  0  0  0
  -36.0173    3.5927  -44.4913 N   0  0  0  0  0  0  0  0  0  0  0  0
  -36.3933    2.1751  -44.5752 C   0  0  0  0  0  0  0  0  0  0  0  0
  -36.1059    1.6538  -45.9847 C   0  0  0  0  0  0  0  0  0  0  0  0
  -36.3798    0.1494  -46.0378 C   0  0  0  0  0  0  0  0  0  0  0  0
  -35.7312   -0.4428  -47.2906 C   0  0  0  0  0  0  0  0  0  0  0  0
  -34.3211    0.1277  -47.4540 C   0  0  0  0  0  0  0  0  0  0  0  0
  -34.2701    1.0126  -48.7011 C   0  0  0  0  0  0  0  0  0  0  0  0
  -34.9508    2.3504  -48.4043 C   0  0  0  0  0  0  0  0  0  0  0  0
  -36.4689    2.1611  -48.4040 C   0  0  0  0  0  0  0  0  0  0  0  0
  -37.0098    2.3726  -46.9886 C   0  0  0  0  0  0  0  0  0  0  0  0
  -34.3808    3.8198  -44.9324 X   0  0  0  0  0  0  0  0  0  0  0  0
  1  2  1  0  0  0  0
  2  3  1  0  0  0  0
  2 12  1  0  0  0  0
  3  4  1  0  0  0  0
  4  5  1  0  0  0  0
  4 11  1  0  0  0  0
  5  6  1  0  0  0  0
  6  7  1  0  0  0  0
  7  8  1  0  0  0  0
  8  9  1  0  0  0  0
  9 10  1  0  0  0  0
 10 11  1  0  0  0  0
M  END
> <Index>
23223

> <PropertyFieldDistance>
nan

$$$$
6463844
BBcorina  12272117083D 1   1.00000     0.00000 
CORINA 4.3.0 0026  30.10.2019
 11 11  0  0  0  0  0  0  0  0999 V2000
  -34.8878    6.7701  -41.6768 C   0  0  0  0  0  0  0  0  0  0  0  0
  -35.2908    5.6031  -42.5411 C   0  0  0  0  0  0  0  0  0  0  0  0
  -36.6044    5.2587  -42.6658 C   0  0  0  0  0  0  0  0  0  0  0  0
  -36.9573    4.1676  -43.4772 C   0  0  0  0  0  0  0  0  0  0  0  0
  -38.1308    3.8508  -43.5955 O   0  0  0  0  0  0  0  0  0  0  0  0
  -36.0048    3.4698  -44.1242 N   0  0  0  0  0  0  0  0  0  0  0  0
  -36.3862    2.3335  -44.9666 C   0  0  0  0  0  0  0  0  0  0  0  0
  -34.6924    3.8077  -44.0047 C   0  0  0  0  0  0  0  0  0  0  0  0
  -34.3171    4.8610  -43.2327 C   0  0  0  0  0  0  0  0  0  0  0  0
  -32.9610    5.2034  -43.1212 N   0  0  0  0  0  0  0  0  0  0  0  0
  -31.7788    4.2992  -43.9633 X   0  0  0  0  0  0  0  0  0  0  0  0
  1  2  1  0  0  0  0
  2  3  2  0  0  0  0
  2  9  1  0  0  0  0
  3  4  1  0  0  0  0
  4  5  2  0  0  0  0
  4  6  1  0  0  0  0
  6  7  1  0  0  0  0
  6  8  1  0  0  0  0
  8  9  2  0  0  0  0
  9 10  1  0  0  0  0
 10 11  1  0  0  0  0
M  END
> <Index>
23235

> <PropertyFieldDistance>
nan

$$$$
10810232
BBcorina  12272117083D 1   1.00000     0.00000 
CORINA 4.3.0 0026  30.10.2019
 10 10  0  0  0  0  0  0  0  0999 V2000
  -38.0197    0.1827  -45.8673 O   0  0  0  0  0  0  0  0  0  0  0  0
  -36.6117    0.2152  -46.1093 C   0  0  0  0  0  0  0  0  0  0  0  0
  -36.3243   -0.3061  -47.5188 C   0  0  0  0  0  0  0  0  0  0  0  0
  -34.8168   -0.2712  -47.7779 C   0  0  0  0  0  0  0  0  0  0  0  0
  -34.3110    1.1674  -47.6532 C   0  0  0  0  0  0  0  0  0  0  0  0
  -34.5984    1.6886  -46.2437 C   0  0  0  0  0  0  0  0  0  0  0  0
  -36.1059    1.6538  -45.9847 C   0  0  0  0  0  0  0  0  0  0  0  0
  -36.3933    2.1751  -44.5752 C   0  0  0  0  0  0  0  0  0  0  0  0
  -36.0173    3.5927  -44.4913 N   0  0  0  0  0  0  0  0  0  0  0  0
  -36.3229    4.2163  -42.9286 X   0  0  0  0  0  0  0  0  0  0  0  0
  1  2  1  0  0  0  0
  2  3  1  0  0  0  0
  2  7  1  0  0  0  0
  3  4  1  0  0  0  0
  4  5  1  0  0  0  0
  5  6  1  0  0  0  0
  6  7  1  0  0  0  0
  7  8  1  0  0  0  0
  8  9  1  0  0  0  0
  9 10  1  0  0  0  0
M  END
> <Index>
23250

> <PropertyFieldDistance>
nan

$$$$
14728744
BBcorina  12272117083D 1   1.00000     0.00000 
CORINA 4.3.0 0026  30.10.2019
 12 12  0  0  0  0  0  0  0  0999 V2000
  -37.1651    1.7367  -45.6133 F   0  0  0  0  0  0  0  0  0  0  0  0
  -36.4754    2.6142  -44.7696 C   0  0  0  0  0  0  0  0  0  0  0  0
  -37.3898    3.4452  -44.1135 F   0  0  0  0  0  0  0  0  0  0  0  0
  -35.5139    3.4683  -45.5986 C   0  0  0  0  0  0  0  0  0  0  0  0
  -35.0618    4.6735  -44.7716 C   0  0  0  0  0  0  0  0  0  0  0  0
  -34.0271    4.2236  -43.7384 C   0  0  0  0  0  0  0  0  0  0  0  0
  -34.6135    4.3672  -42.3327 C   0  0  0  0  0  0  0  0  0  0  0  0
  -36.0489    3.8372  -42.3219 C   0  0  0  0  0  0  0  0  0  0  0  0
  -36.0281    2.3073  -42.3303 C   0  0  0  0  0  0  0  0  0  0  0  0
  -35.6838    1.8109  -43.7360 C   0  0  0  0  0  0  0  0  0  0  0  0
  -36.0307    0.3882  -43.8514 N   0  0  0  0  0  0  0  0  0  0  0  0
  -37.7001    0.1402  -43.5759 X   0  0  0  0  0  0  0  0  0  0  0  0
  1  2  1  0  0  0  0
  2  3  1  0  0  0  0
  2  4  1  0  0  0  0
  2 10  1  0  0  0  0
  4  5  1  0  0  0  0
  5  6  1  0  0  0  0
  6  7  1  0  0  0  0
  7  8  1  0  0  0  0
  8  9  1  0  0  0  0
  9 10  1  0  0  0  0
 10 11  1  0  0  0  0
 11 12  1  0  0  0  0
M  END
> <Index>
23251

> <PropertyFieldDistance>
nan

$$$$
6741592
BBcorina  12272117083D 1   1.00000     0.00000 
CORINA 4.3.0 0026  30.10.2019
 11 11  0  0  0  0  0  0  0  0999 V2000
  -36.3353    2.3132  -45.0146 C   0  0  0  0  0  0  0  0  0  0  0  0
  -36.0596    3.4491  -44.1316 N   0  0  0  0  0  0  0  0  0  0  0  0
  -37.0285    4.1575  -43.5384 C   0  0  0  0  0  0  0  0  0  0  0  0
  -38.2180    3.9545  -43.6541 O   0  0  0  0  0  0  0  0  0  0  0  0
  -36.4034    5.2495  -42.6979 C   0  0  0  0  0  0  0  0  0  0  0  0
  -34.8895    5.0535  -42.9184 C   0  0  0  0  0  0  0  0  0  0  0  0
  -34.2720    6.2926  -43.5695 C   0  0  0  0  0  0  0  0  0  0  0  0
  -32.8295    6.0826  -43.7519 N   0  0  0  0  0  0  0  0  0  0  0  0
  -34.8183    3.8678  -43.8558 C   0  0  0  0  0  0  0  0  0  0  0  0
  -33.7986    3.3749  -44.2883 O   0  0  0  0  0  0  0  0  0  0  0  0
  -32.0985    7.4470  -44.4786 X   0  0  0  0  0  0  0  0  0  0  0  0
  1  2  1  0  0  0  0
  2  3  1  0  0  0  0
  2  9  1  0  0  0  0
  3  4  2  0  0  0  0
  3  5  1  0  0  0  0
  5  6  1  0  0  0  0
  6  7  1  0  0  0  0
  6  9  1  0  0  0  0
  7  8  1  0  0  0  0
  8 11  1  0  0  0  0
  9 10  2  0  0  0  0
M  END
> <Index>
23264

> <PropertyFieldDistance>
nan

$$$$
7839802
BBcorina  12272117083D 1   1.00000     0.00000 
CORINA 4.3.0 0026  30.10.2019
 10 11  0  0  0  0  0  0  0  0999 V2000
  -36.0173    3.5927  -44.4913 N   0  0  0  0  0  0  0  0  0  0  0  0
  -36.3933    2.1751  -44.5753 C   0  0  0  0  0  0  0  0  0  0  0  0
  -36.1059    1.6538  -45.9846 C   0  0  0  0  0  0  0  0  0  0  0  0
  -36.8986    2.3375  -47.1430 C   0  0  0  0  0  0  0  0  0  0  0  0
  -36.8290    1.3297  -48.3131 C   0  0  0  0  0  0  0  0  0  0  0  0
  -36.0013    0.1326  -47.7538 C   0  0  0  0  0  0  0  0  0  0  0  0
  -34.5499    0.6879  -47.6250 C   0  0  0  0  0  0  0  0  0  0  0  0
  -34.6193    1.6956  -46.4530 C   0  0  0  0  0  0  0  0  0  0  0  0
  -36.4515    0.1460  -46.2503 C   0  0  0  0  0  0  0  0  0  0  0  0
  -36.3228    4.2164  -42.9287 X   0  0  0  0  0  0  0  0  0  0  0  0
  1  2  1  0  0  0  0
  1 10  1  0  0  0  0
  2  3  1  0  0  0  0
  3  4  1  0  0  0  0
  3  8  1  0  0  0  0
  3  9  1  0  0  0  0
  4  5  1  0  0  0  0
  5  6  1  0  0  0  0
  6  7  1  0  0  0  0
  6  9  1  0  0  0  0
  7  8  1  0  0  0  0
M  END
> <Index>
23277

> <PropertyFieldDistance>
nan

$$$$
11567948
BBcorina  12272117083D 1   1.00000     0.00000 
CORINA 4.3.0 0026  30.10.2019
 11 12  0  0  0  0  0  0  0  0999 V2000
  -36.0173    3.5927  -44.4913 N   0  0  0  0  0  0  0  0  0  0  0  0
  -36.3933    2.1751  -44.5752 C   0  0  0  0  0  0  0  0  0  0  0  0
  -36.1059    1.6538  -45.9847 C   0  0  0  0  0  0  0  0  0  0  0  0
  -37.0098    2.3725  -46.9884 C   0  0  0  0  0  0  0  0  0  0  0  0
  -37.8862    1.3473  -47.7107 C   0  0  0  0  0  0  0  0  0  0  0  0
  -36.9962    0.3469  -48.4510 C   0  0  0  0  0  0  0  0  0  0  0  0
  -36.0925   -0.3718  -47.4472 C   0  0  0  0  0  0  0  0  0  0  0  0
  -36.3798    0.1495  -46.0377 C   0  0  0  0  0  0  0  0  0  0  0  0
  -37.8450   -0.1149  -45.6851 C   0  0  0  0  0  0  0  0  0  0  0  0
  -38.7488    0.6038  -46.6889 C   0  0  0  0  0  0  0  0  0  0  0  0
  -36.3229    4.2163  -42.9287 X   0  0  0  0  0  0  0  0  0  0  0  0
  1  2  1  0  0  0  0
  1 11  1  0  0  0  0
  2  3  1  0  0  0  0
  3  4  1  0  0  0  0
  3  8  1  0  0  0  0
  4  5  1  0  0  0  0
  5  6  1  0  0  0  0
  5 10  1  0  0  0  0
  6  7  1  0  0  0  0
  7  8  1  0  0  0  0
  8  9  1  0  0  0  0
  9 10  1  0  0  0  0
M  END
> <Index>
23278

> <PropertyFieldDistance>
nan

$$$$
15739780
BBcorina  12272117083D 1   1.00000     0.00000 
CORINA 4.3.0 0026  30.10.2019
 12 13  0  0  0  0  0  0  0  0999 V2000
  -32.3367    2.7244  -42.7482 N   0  0  0  0  0  0  0  0  0  0  0  0
  -33.7061    2.1928  -42.7380 C   0  0  0  0  0  0  0  0  0  0  0  0
  -34.4822    2.7177  -41.5043 C   0  0  0  0  0  0  0  0  0  0  0  0
  -35.9626    2.5960  -41.9576 C   0  0  0  0  0  0  0  0  0  0  0  0
  -35.9334    2.9819  -43.4480 C   0  0  0  0  0  0  0  0  0  0  0  0
  -34.5026    2.7288  -43.9464 C   0  0  0  0  0  0  0  0  0  0  0  0
  -36.2874    4.4585  -43.6071 C   0  0  0  0  0  0  0  0  0  0  0  0
  -36.2482    4.8360  -45.0899 C   0  0  0  0  0  0  0  0  0  0  0  0
  -37.2489    3.9733  -45.8615 C   0  0  0  0  0  0  0  0  0  0  0  0
  -36.8773    2.4971  -45.7078 C   0  0  0  0  0  0  0  0  0  0  0  0
  -36.9182    2.1131  -44.2267 C   0  0  0  0  0  0  0  0  0  0  0  0
  -32.3427    4.4341  -42.7194 X   0  0  0  0  0  0  0  0  0  0  0  0
  1  2  1  0  0  0  0
  1 12  1  0  0  0  0
  2  3  1  0  0  0  0
  2  6  1  0  0  0  0
  3  4  1  0  0  0  0
  4  5  1  0  0  0  0
  5  6  1  0  0  0  0
  5  7  1  0  0  0  0
  5 11  1  0  0  0  0
  7  8  1  0  0  0  0
  8  9  1  0  0  0  0
  9 10  1  0  0  0  0
 10 11  1  0  0  0  0
M  END
> <Index>
23294

> <PropertyFieldDistance>
nan

$$$$
10303540
BBcorina  12272117083D 1   1.00000     0.00000 
CORINA 4.3.0 0026  30.10.2019
 10 10  0  0  0  0  0  0  0  0999 V2000
  -37.6587    5.3053  -41.4461 C   0  0  0  0  0  0  0  0  0  0  0  0
  -36.6793    5.2476  -42.6202 C   0  0  0  0  0  0  0  0  0  0  0  0
  -36.9723    4.0086  -43.4695 C   0  0  0  0  0  0  0  0  0  0  0  0
  -36.0192    3.9414  -44.5846 N   0  0  0  0  0  0  0  0  0  0  0  0
  -34.6396    3.8164  -44.0970 C   0  0  0  0  0  0  0  0  0  0  0  0
  -34.2769    5.0496  -43.2665 C   0  0  0  0  0  0  0  0  0  0  0  0
  -35.2462    5.1675  -42.0870 C   0  0  0  0  0  0  0  0  0  0  0  0
  -34.9542    6.3240  -41.3558 F   0  0  0  0  0  0  0  0  0  0  0  0
  -35.1164    4.0457  -41.2613 F   0  0  0  0  0  0  0  0  0  0  0  0
  -36.4110    2.6621  -45.6494 X   0  0  0  0  0  0  0  0  0  0  0  0
  1  2  1  0  0  0  0
  2  3  1  0  0  0  0
  2  7  1  0  0  0  0
  3  4  1  0  0  0  0
  4  5  1  0  0  0  0
  4 10  1  0  0  0  0
  5  6  1  0  0  0  0
  6  7  1  0  0  0  0
  7  8  1  0  0  0  0
  7  9  1  0  0  0  0
M  END
> <Index>
23326

> <PropertyFieldDistance>
nan

$$$$
12058590
BBcorina  12272117083D 1   1.00000     0.00000 
CORINA 4.3.0 0026  30.10.2019
 13 14  0  0  0  0  0  0  0  0999 V2000
  -38.8578    5.3698  -41.5687 N   0  0  0  0  0  0  0  0  0  0  0  0
  -37.5358    5.1913  -41.3772 C   0  0  0  0  0  0  0  0  0  0  0  0
  -37.1024    5.0243  -40.2568 O   0  0  0  0  0  0  0  0  0  0  0  0
  -36.5959    5.1993  -42.5552 C   0  0  0  0  0  0  0  0  0  0  0  0
  -36.9814    4.0786  -43.5236 C   0  0  0  0  0  0  0  0  0  0  0  0
  -36.0396    4.0639  -44.6516 N   0  0  0  0  0  0  0  0  0  0  0  0
  -34.6635    3.8504  -44.1823 C   0  0  0  0  0  0  0  0  0  0  0  0
  -34.2780    4.9711  -43.2140 C   0  0  0  0  0  0  0  0  0  0  0  0
  -35.2197    4.9858  -42.0859 N   0  0  0  0  0  0  0  0  0  0  0  0
  -34.8381    6.0007  -41.0947 C   0  0  0  0  0  0  0  0  0  0  0  0
  -33.4594    5.8698  -40.4446 C   0  0  0  0  0  0  0  0  0  0  0  0
  -33.7190    6.9727  -41.4738 C   0  0  0  0  0  0  0  0  0  0  0  0
  -36.4839    2.8825  -45.8054 X   0  0  0  0  0  0  0  0  0  0  0  0
  1  2  1  0  0  0  0
  2  3  2  0  0  0  0
  2  4  1  0  0  0  0
  4  5  1  0  0  0  0
  4  9  1  0  0  0  0
  5  6  1  0  0  0  0
  6  7  1  0  0  0  0
  6 13  1  0  0  0  0
  7  8  1  0  0  0  0
  8  9  1  0  0  0  0
  9 10  1  0  0  0  0
 10 11  1  0  0  0  0
 10 12  1  0  0  0  0
 11 12  1  0  0  0  0
M  END
> <Index>
23341

> <PropertyFieldDistance>
nan

$$$$
17803444
BBcorina  12272117083D 1   1.00000     0.00000 
CORINA 4.3.0 0026  30.10.2019
 14 14  0  0  0  0  0  0  0  0999 V2000
  -35.6389   -0.8510  -48.4601 C   0  0  0  0  0  0  0  0  0  0  0  0
  -35.2862    0.5326  -47.9104 C   0  0  0  0  0  0  0  0  0  0  0  0
  -36.0042    0.7574  -46.6687 O   0  0  0  0  0  0  0  0  0  0  0  0
  -35.8041    1.9335  -46.0534 C   0  0  0  0  0  0  0  0  0  0  0  0
  -35.0537    2.7480  -46.5364 O   0  0  0  0  0  0  0  0  0  0  0  0
  -36.5153    2.2379  -44.7601 C   0  0  0  0  0  0  0  0  0  0  0  0
  -36.1304    3.5765  -44.2930 N   0  0  0  0  0  0  0  0  0  0  0  0
  -36.9747    4.0050  -43.1705 C   0  0  0  0  0  0  0  0  0  0  0  0
  -36.6444    5.4542  -42.8061 C   0  0  0  0  0  0  0  0  0  0  0  0
  -35.1650    5.5549  -42.4241 C   0  0  0  0  0  0  0  0  0  0  0  0
  -34.3093    5.0572  -43.5922 C   0  0  0  0  0  0  0  0  0  0  0  0
  -34.7073    3.6195  -43.9337 C   0  0  0  0  0  0  0  0  0  0  0  0
  -34.8281    6.9540  -42.1298 N   0  0  0  0  0  0  0  0  0  0  0  0
  -35.2135    7.9683  -43.4514 X   0  0  0  0  0  0  0  0  0  0  0  0
  1  2  1  0  0  0  0
  2  3  1  0  0  0  0
  3  4  1  0  0  0  0
  4  5  2  0  0  0  0
  4  6  1  0  0  0  0
  6  7  1  0  0  0  0
  7  8  1  0  0  0  0
  7 12  1  0  0  0  0
  8  9  1  0  0  0  0
  9 10  1  0  0  0  0
 10 11  1  0  0  0  0
 10 13  1  0  0  0  0
 11 12  1  0  0  0  0
 13 14  1  0  0  0  0
M  END
> <Index>
23353

> <PropertyFieldDistance>
nan

$$$$
17846504
BBcorina  12272117083D 1   1.00000     0.00000 
CORINA 4.3.0 0026  30.10.2019
  9 10  0  0  0  0  0  0  0  0999 V2000
  -36.0173    3.5927  -44.4913 N   0  0  0  0  0  0  0  0  0  0  0  0
  -36.3933    2.1751  -44.5752 C   0  0  0  0  0  0  0  0  0  0  0  0
  -36.1059    1.6538  -45.9847 C   0  0  0  0  0  0  0  0  0  0  0  0
  -34.6516    1.1995  -46.1872 C   0  0  0  0  0  0  0  0  0  0  0  0
  -35.2085    0.0148  -46.9926 C   0  0  0  0  0  0  0  0  0  0  0  0
  -35.0673   -1.3787  -46.3597 C   0  0  0  0  0  0  0  0  0  0  0  0
  -35.9550   -0.8375  -45.1971 C   0  0  0  0  0  0  0  0  0  0  0  0
  -36.5183    0.1880  -46.1938 C   0  0  0  0  0  0  0  0  0  0  0  0
  -36.3230    4.2163  -42.9287 X   0  0  0  0  0  0  0  0  0  0  0  0
  1  2  1  0  0  0  0
  1  9  1  0  0  0  0
  2  3  1  0  0  0  0
  3  4  1  0  0  0  0
  3  8  1  0  0  0  0
  4  5  1  0  0  0  0
  5  6  1  0  0  0  0
  5  8  1  0  0  0  0
  6  7  1  0  0  0  0
  7  8  1  0  0  0  0
M  END
> <Index>
23355

> <PropertyFieldDistance>
nan

$$$$
11245006
BBcorina  12272117083D 1   1.00000     0.00000 
CORINA 4.3.0 0026  30.10.2019
 13 13  0  0  0  0  0  0  0  0999 V2000
  -36.6310    7.7641  -43.4665 C   0  0  0  0  0  0  0  0  0  0  0  0
  -35.5414    6.8748  -43.7196 O   0  0  0  0  0  0  0  0  0  0  0  0
  -35.3535    5.8832  -42.7080 C   0  0  0  0  0  0  0  0  0  0  0  0
  -36.6587    5.1099  -42.5007 C   0  0  0  0  0  0  0  0  0  0  0  0
  -37.0290    4.3869  -43.7977 C   0  0  0  0  0  0  0  0  0  0  0  0
  -35.9479    3.4664  -44.1723 N   0  0  0  0  0  0  0  0  0  0  0  0
  -34.6958    4.1916  -44.4226 C   0  0  0  0  0  0  0  0  0  0  0  0
  -34.2559    4.9088  -43.1444 C   0  0  0  0  0  0  0  0  0  0  0  0
  -34.9467    6.5602  -41.3976 C   0  0  0  0  0  0  0  0  0  0  0  0
  -36.0027    7.3525  -40.9347 F   0  0  0  0  0  0  0  0  0  0  0  0
  -34.6430    5.5837  -40.4429 F   0  0  0  0  0  0  0  0  0  0  0  0
  -33.8224    7.3634  -41.6171 F   0  0  0  0  0  0  0  0  0  0  0  0
  -36.3899    2.5210  -45.5269 X   0  0  0  0  0  0  0  0  0  0  0  0
  1  2  1  0  0  0  0
  2  3  1  0  0  0  0
  3  4  1  0  0  0  0
  3  8  1  0  0  0  0
  3  9  1  0  0  0  0
  4  5  1  0  0  0  0
  5  6  1  0  0  0  0
  6  7  1  0  0  0  0
  6 13  1  0  0  0  0
  7  8  1  0  0  0  0
  9 10  1  0  0  0  0
  9 11  1  0  0  0  0
  9 12  1  0  0  0  0
M  END
> <Index>
23360

> <PropertyFieldDistance>
nan

$$$$
15163172
BBcorina  12272117083D 1   1.00000     0.00000 
CORINA 4.3.0 0026  30.10.2019
 10 11  0  0  0  0  0  0  0  0999 V2000
  -36.1394    0.3887  -46.3583 N   0  0  0  0  0  0  0  0  0  0  0  0
  -35.8012    1.7804  -46.0319 C   0  0  0  0  0  0  0  0  0  0  0  0
  -36.5419    2.2007  -44.7608 C   0  0  0  0  0  0  0  0  0  0  0  0
  -36.2036    3.5924  -44.4344 N   0  0  0  0  0  0  0  0  0  0  0  0
  -37.0789    4.1136  -43.3532 C   0  0  0  0  0  0  0  0  0  0  0  0
  -36.2984    5.3071  -42.7620 C   0  0  0  0  0  0  0  0  0  0  0  0
  -35.3225    5.0340  -41.6157 C   0  0  0  0  0  0  0  0  0  0  0  0
  -34.8202    5.0278  -43.1033 C   0  0  0  0  0  0  0  0  0  0  0  0
  -34.8320    3.6891  -43.8720 C   0  0  0  0  0  0  0  0  0  0  0  0
  -35.3308   -0.1223  -47.7757 X   0  0  0  0  0  0  0  0  0  0  0  0
  1  2  1  0  0  0  0
  1 10  1  0  0  0  0
  2  3  1  0  0  0  0
  3  4  1  0  0  0  0
  4  5  1  0  0  0  0
  4  9  1  0  0  0  0
  5  6  1  0  0  0  0
  6  7  1  0  0  0  0
  6  8  1  0  0  0  0
  7  8  1  0  0  0  0
  8  9  1  0  0  0  0
M  END
> <Index>
23362

> <PropertyFieldDistance>
nan

$$$$
11618734
BBcorina  12272117083D 1   1.00000     0.00000 
CORINA 4.3.0 0026  30.10.2019
  8  8  0  0  0  0  0  0  0  0999 V2000
  -37.1771    3.9553  -44.4046 N   0  0  0  0  0  0  0  0  0  0  0  0
  -35.7588    3.8998  -44.0262 C   0  0  0  0  0  0  0  0  0  0  0  0
  -35.0965    2.6308  -44.6072 C   0  0  0  0  0  0  0  0  0  0  0  0
  -34.3010    2.0950  -43.3950 C   0  0  0  0  0  0  0  0  0  0  0  0
  -35.0295    2.5881  -42.2318 O   0  0  0  0  0  0  0  0  0  0  0  0
  -35.6190    3.7573  -42.5261 C   0  0  0  0  0  0  0  0  0  0  0  0
  -35.9820    4.5749  -41.7139 O   0  0  0  0  0  0  0  0  0  0  0  0
  -38.0229    2.5918  -43.8132 X   0  0  0  0  0  0  0  0  0  0  0  0
  1  2  1  0  0  0  0
  1  8  1  0  0  0  0
  2  3  1  0  0  0  0
  2  6  1  0  0  0  0
  3  4  1  0  0  0  0
  4  5  1  0  0  0  0
  5  6  1  0  0  0  0
  6  7  2  0  0  0  0
M  END
> <Index>
23371

> <PropertyFieldDistance>
nan

$$$$
10808990
BBcorina  12272117083D 1   1.00000     0.00000 
CORINA 4.3.0 0026  30.10.2019
 11 12  0  0  0  0  0  0  0  0999 V2000
  -36.4358    2.3367  -44.4624 C   0  0  0  0  0  0  0  0  0  0  0  0
  -35.9358    3.7179  -44.4731 N   0  0  0  0  0  0  0  0  0  0  0  0
  -36.9318    4.6498  -43.8806 C   0  0  0  0  0  0  0  0  0  0  0  0
  -36.7935    4.4347  -42.3559 C   0  0  0  0  0  0  0  0  0  0  0  0
  -35.3516    3.9135  -42.1587 C   0  0  0  0  0  0  0  0  0  0  0  0
  -34.7508    3.8626  -43.5824 C   0  0  0  0  0  0  0  0  0  0  0  0
  -34.1270    5.2359  -43.8787 C   0  0  0  0  0  0  0  0  0  0  0  0
  -35.1269    6.3305  -43.4950 C   0  0  0  0  0  0  0  0  0  0  0  0
  -36.4637    6.0791  -44.1982 C   0  0  0  0  0  0  0  0  0  0  0  0
  -34.5988    7.6393  -43.9028 N   0  0  0  0  0  0  0  0  0  0  0  0
  -34.3428    7.6974  -45.5924 X   0  0  0  0  0  0  0  0  0  0  0  0
  1  2  1  0  0  0  0
  2  3  1  0  0  0  0
  2  6  1  0  0  0  0
  3  4  1  0  0  0  0
  3  9  1  0  0  0  0
  4  5  1  0  0  0  0
  5  6  1  0  0  0  0
  6  7  1  0  0  0  0
  7  8  1  0  0  0  0
  8  9  1  0  0  0  0
  8 10  1  0  0  0  0
 10 11  1  0  0  0  0
M  END
> <Index>
23378

> <PropertyFieldDistance>
nan

$$$$
15719430
BBcorina  12272117083D 1   1.00000     0.00000 
CORINA 4.3.0 0026  30.10.2019
  9  9  0  0  0  0  0  0  0  0999 V2000
  -36.0173    3.5927  -44.4913 N   0  0  0  0  0  0  0  0  0  0  0  0
  -36.3933    2.1751  -44.5753 C   0  0  0  0  0  0  0  0  0  0  0  0
  -36.1059    1.6538  -45.9847 C   0  0  0  0  0  0  0  0  0  0  0  0
  -36.3796    0.1477  -46.0397 C   0  0  0  0  0  0  0  0  0  0  0  0
  -36.1654   -0.3500  -47.4715 C   0  0  0  0  0  0  0  0  0  0  0  0
  -37.0211    0.3729  -48.3587 O   0  0  0  0  0  0  0  0  0  0  0  0
  -36.7788    1.7810  -48.3849 C   0  0  0  0  0  0  0  0  0  0  0  0
  -37.0177    2.3643  -46.9897 C   0  0  0  0  0  0  0  0  0  0  0  0
  -36.3230    4.2162  -42.9286 X   0  0  0  0  0  0  0  0  0  0  0  0
  1  2  1  0  0  0  0
  1  9  1  0  0  0  0
  2  3  1  0  0  0  0
  3  4  1  0  0  0  0
  3  8  1  0  0  0  0
  4  5  1  0  0  0  0
  5  6  1  0  0  0  0
  6  7  1  0  0  0  0
  7  8  1  0  0  0  0
M  END
> <Index>
23379

> <PropertyFieldDistance>
nan

$$$$
1001820
BBcorina  12272117083D 1   1.00000     0.00000 
CORINA 4.3.0 0026  30.10.2019
 12 13  0  0  0  0  0  0  0  0999 V2000
  -35.1574    7.1363  -42.4198 N   0  0  0  0  0  0  0  0  0  0  0  0
  -35.4705    6.0330  -43.3378 C   0  0  0  0  0  0  0  0  0  0  0  0
  -36.7370    5.3155  -42.8623 C   0  0  0  0  0  0  0  0  0  0  0  0
  -37.0238    4.1304  -43.7871 C   0  0  0  0  0  0  0  0  0  0  0  0
  -35.8814    3.2077  -43.7710 N   0  0  0  0  0  0  0  0  0  0  0  0
  -36.1770    1.9907  -44.5388 C   0  0  0  0  0  0  0  0  0  0  0  0
  -36.2955    2.3404  -46.0235 C   0  0  0  0  0  0  0  0  0  0  0  0
  -36.7211    1.2249  -46.9803 C   0  0  0  0  0  0  0  0  0  0  0  0
  -35.2739    1.7214  -46.9794 C   0  0  0  0  0  0  0  0  0  0  0  0
  -34.6640    3.8611  -44.2684 C   0  0  0  0  0  0  0  0  0  0  0  0
  -34.3068    5.0381  -43.3580 C   0  0  0  0  0  0  0  0  0  0  0  0
  -34.8952    6.5570  -40.8324 X   0  0  0  0  0  0  0  0  0  0  0  0
  1  2  1  0  0  0  0
  1 12  1  0  0  0  0
  2  3  1  0  0  0  0
  2 11  1  0  0  0  0
  3  4  1  0  0  0  0
  4  5  1  0  0  0  0
  5  6  1  0  0  0  0
  5 10  1  0  0  0  0
  6  7  1  0  0  0  0
  7  8  1  0  0  0  0
  7  9  1  0  0  0  0
  8  9  1  0  0  0  0
 10 11  1  0  0  0  0
M  END
> <Index>
23390

> <PropertyFieldDistance>
nan

$$$$
515790
BBcorina  12272117083D 1   1.00000     0.00000 
CORINA 4.3.0 0026  30.10.2019
 13 13  0  0  0  0  0  0  0  0999 V2000
  -36.4955   10.0417  -38.3199 C   0  0  0  0  0  0  0  0  0  0  0  0
  -36.8374    9.3205  -39.6253 C   0  0  0  0  0  0  0  0  0  0  0  0
  -35.8150    8.3305  -39.9134 O   0  0  0  0  0  0  0  0  0  0  0  0
  -35.9673    7.6054  -41.0327 C   0  0  0  0  0  0  0  0  0  0  0  0
  -36.9231    7.7917  -41.7479 O   0  0  0  0  0  0  0  0  0  0  0  0
  -34.9460    6.5589  -41.3971 C   0  0  0  0  0  0  0  0  0  0  0  0
  -35.3535    5.8833  -42.7079 C   0  0  0  0  0  0  0  0  0  0  0  0
  -36.6585    5.1099  -42.5008 C   0  0  0  0  0  0  0  0  0  0  0  0
  -37.0291    4.3869  -43.7977 C   0  0  0  0  0  0  0  0  0  0  0  0
  -35.9480    3.4664  -44.1723 N   0  0  0  0  0  0  0  0  0  0  0  0
  -34.6958    4.1916  -44.4226 C   0  0  0  0  0  0  0  0  0  0  0  0
  -34.2559    4.9088  -43.1442 C   0  0  0  0  0  0  0  0  0  0  0  0
  -36.3899    2.5211  -45.5270 X   0  0  0  0  0  0  0  0  0  0  0  0
  1  2  1  0  0  0  0
  2  3  1  0  0  0  0
  3  4  1  0  0  0  0
  4  5  2  0  0  0  0
  4  6  1  0  0  0  0
  6  7  1  0  0  0  0
  7  8  1  0  0  0  0
  7 12  1  0  0  0  0
  8  9  1  0  0  0  0
  9 10  1  0  0  0  0
 10 11  1  0  0  0  0
 10 13  1  0  0  0  0
 11 12  1  0  0  0  0
M  END
> <Index>
23392

> <PropertyFieldDistance>
nan

$$$$
515792
BBcorina  12272117083D 1   1.00000     0.00000 
CORINA 4.3.0 0026  30.10.2019
 16 17  0  0  0  0  0  0  0  0999 V2000
  -36.0101    3.7523  -44.4406 N   0  0  0  0  0  0  0  0  0  0  0  0
  -36.9928    4.5932  -43.7441 C   0  0  0  0  0  0  0  0  0  0  0  0
  -36.6200    4.6868  -42.2607 C   0  0  0  0  0  0  0  0  0  0  0  0
  -35.2259    5.1440  -42.1573 N   0  0  0  0  0  0  0  0  0  0  0  0
  -34.2020    4.4375  -42.9420 C   0  0  0  0  0  0  0  0  0  0  0  0
  -34.6690    4.3500  -44.3940 C   0  0  0  0  0  0  0  0  0  0  0  0
  -34.8963    6.1860  -41.3686 C   0  0  0  0  0  0  0  0  0  0  0  0
  -35.7392    6.7039  -40.6618 O   0  0  0  0  0  0  0  0  0  0  0  0
  -33.6324    6.6540  -41.3636 N   0  0  0  0  0  0  0  0  0  0  0  0
  -33.2988    7.8543  -40.5928 C   0  0  0  0  0  0  0  0  0  0  0  0
  -32.0654    8.5246  -41.2011 C   0  0  0  0  0  0  0  0  0  0  0  0
  -31.7170    9.7781  -40.3961 C   0  0  0  0  0  0  0  0  0  0  0  0
  -31.4224    9.3878  -38.9463 C   0  0  0  0  0  0  0  0  0  0  0  0
  -32.6558    8.7175  -38.3380 C   0  0  0  0  0  0  0  0  0  0  0  0
  -33.0042    7.4639  -39.1431 C   0  0  0  0  0  0  0  0  0  0  0  0
  -36.4924    3.4541  -46.0538 X   0  0  0  0  0  0  0  0  0  0  0  0
  1  2  1  0  0  0  0
  1  6  1  0  0  0  0
  1 16  1  0  0  0  0
  2  3  1  0  0  0  0
  3  4  1  0  0  0  0
  4  5  1  0  0  0  0
  4  7  1  0  0  0  0
  5  6  1  0  0  0  0
  7  8  2  0  0  0  0
  7  9  1  0  0  0  0
  9 10  1  0  0  0  0
 10 11  1  0  0  0  0
 10 15  1  0  0  0  0
 11 12  1  0  0  0  0
 12 13  1  0  0  0  0
 13 14  1  0  0  0  0
 14 15  1  0  0  0  0
M  END
> <Index>
23396

> <PropertyFieldDistance>
nan

$$$$
860286
BBcorina  12272117083D 1   1.00000     0.00000 
CORINA 4.3.0 0026  30.10.2019
 11 11  0  0  0  0  0  0  0  0999 V2000
  -35.8144    8.3335  -39.9088 N   0  0  0  0  0  0  0  0  0  0  0  0
  -35.9673    7.6054  -41.0327 C   0  0  0  0  0  0  0  0  0  0  0  0
  -36.9267    7.7924  -41.7505 O   0  0  0  0  0  0  0  0  0  0  0  0
  -34.9460    6.5589  -41.3971 C   0  0  0  0  0  0  0  0  0  0  0  0
  -35.3535    5.8833  -42.7079 C   0  0  0  0  0  0  0  0  0  0  0  0
  -36.6585    5.1099  -42.5008 C   0  0  0  0  0  0  0  0  0  0  0  0
  -37.0291    4.3869  -43.7977 C   0  0  0  0  0  0  0  0  0  0  0  0
  -35.9480    3.4664  -44.1723 N   0  0  0  0  0  0  0  0  0  0  0  0
  -34.6958    4.1916  -44.4226 C   0  0  0  0  0  0  0  0  0  0  0  0
  -34.2559    4.9088  -43.1442 C   0  0  0  0  0  0  0  0  0  0  0  0
  -36.3899    2.5211  -45.5270 X   0  0  0  0  0  0  0  0  0  0  0  0
  1  2  1  0  0  0  0
  2  3  2  0  0  0  0
  2  4  1  0  0  0  0
  4  5  1  0  0  0  0
  5  6  1  0  0  0  0
  5 10  1  0  0  0  0
  6  7  1  0  0  0  0
  7  8  1  0  0  0  0
  8  9  1  0  0  0  0
  8 11  1  0  0  0  0
  9 10  1  0  0  0  0
M  END
> <Index>
23400

> <PropertyFieldDistance>
nan

$$$$
17067210
BBcorina  12272117083D 1   1.00000     0.00000 
CORINA 4.3.0 0026  30.10.2019
 12 13  0  0  0  0  0  0  0  0999 V2000
  -36.9464    1.7924  -45.7411 C   0  0  0  0  0  0  0  0  0  0  0  0
  -35.6967    2.3635  -45.1222 C   0  0  0  0  0  0  0  0  0  0  0  0
  -34.6113    1.9116  -45.4198 O   0  0  0  0  0  0  0  0  0  0  0  0
  -35.7852    3.3767  -44.2377 N   0  0  0  0  0  0  0  0  0  0  0  0
  -37.0325    4.0162  -43.7903 C   0  0  0  0  0  0  0  0  0  0  0  0
  -36.6494    5.1067  -42.7636 C   0  0  0  0  0  0  0  0  0  0  0  0
  -35.2534    4.6611  -42.3012 C   0  0  0  0  0  0  0  0  0  0  0  0
  -34.4079    5.7111  -41.5911 C   0  0  0  0  0  0  0  0  0  0  0  0
  -33.9677    4.6002  -40.7134 N   0  0  0  0  0  0  0  0  0  0  0  0
  -35.1960    3.8304  -41.0251 C   0  0  0  0  0  0  0  0  0  0  0  0
  -34.6458    4.0277  -43.5594 C   0  0  0  0  0  0  0  0  0  0  0  0
  -33.9481    5.0855  -39.0738 X   0  0  0  0  0  0  0  0  0  0  0  0
  1  2  1  0  0  0  0
  2  3  2  0  0  0  0
  2  4  1  0  0  0  0
  4  5  1  0  0  0  0
  4 11  1  0  0  0  0
  5  6  1  0  0  0  0
  6  7  1  0  0  0  0
  7  8  1  0  0  0  0
  7 10  1  0  0  0  0
  7 11  1  0  0  0  0
  8  9  1  0  0  0  0
  9 10  1  0  0  0  0
  9 12  1  0  0  0  0
M  END
> <Index>
23407

> <PropertyFieldDistance>
nan

$$$$
17567710
BBcorina  12272117083D 1   1.00000     0.00000 
CORINA 4.3.0 0026  30.10.2019
 12 12  0  0  0  0  0  0  0  0999 V2000
  -36.9987    1.6299  -45.2703 C   0  0  0  0  0  0  0  0  0  0  0  0
  -35.8226    2.5984  -45.4106 C   0  0  0  0  0  0  0  0  0  0  0  0
  -36.0939    3.5664  -46.5640 C   0  0  0  0  0  0  0  0  0  0  0  0
  -34.5435    1.8093  -45.6972 C   0  0  0  0  0  0  0  0  0  0  0  0
  -34.6973    1.0873  -46.8856 F   0  0  0  0  0  0  0  0  0  0  0  0
  -35.6610    3.3565  -44.1628 N   0  0  0  0  0  0  0  0  0  0  0  0
  -36.8730    4.1284  -43.8549 C   0  0  0  0  0  0  0  0  0  0  0  0
  -36.6943    4.8390  -42.5111 C   0  0  0  0  0  0  0  0  0  0  0  0
  -35.5172    5.7163  -42.5765 N   0  0  0  0  0  0  0  0  0  0  0  0
  -34.3052    4.9443  -42.8845 C   0  0  0  0  0  0  0  0  0  0  0  0
  -34.4838    4.2337  -44.2281 C   0  0  0  0  0  0  0  0  0  0  0  0
  -35.3291    6.5988  -41.1239 X   0  0  0  0  0  0  0  0  0  0  0  0
  1  2  1  0  0  0  0
  2  3  1  0  0  0  0
  2  4  1  0  0  0  0
  2  6  1  0  0  0  0
  4  5  1  0  0  0  0
  6  7  1  0  0  0  0
  6 11  1  0  0  0  0
  7  8  1  0  0  0  0
  8  9  1  0  0  0  0
  9 10  1  0  0  0  0
  9 12  1  0  0  0  0
 10 11  1  0  0  0  0
M  END
> <Index>
23408

> <PropertyFieldDistance>
nan

$$$$
17068310
BBcorina  12272117083D 1   1.00000     0.00000 
CORINA 4.3.0 0026  30.10.2019
 12 14  0  0  0  0  0  0  0  0999 V2000
  -36.0635    3.5297  -44.4140 N   0  0  0  0  0  0  0  0  0  0  0  0
  -36.9941    4.5501  -43.8664 C   0  0  0  0  0  0  0  0  0  0  0  0
  -36.4731    4.8302  -42.4403 C   0  0  0  0  0  0  0  0  0  0  0  0
  -34.9792    4.4359  -42.4779 C   0  0  0  0  0  0  0  0  0  0  0  0
  -34.7271    3.9531  -43.9224 C   0  0  0  0  0  0  0  0  0  0  0  0
  -34.1197    5.6781  -42.2133 C   0  0  0  0  0  0  0  0  0  0  0  0
  -34.4738    6.2250  -40.8238 C   0  0  0  0  0  0  0  0  0  0  0  0
  -35.9526    6.6162  -40.7887 C   0  0  0  0  0  0  0  0  0  0  0  0
  -36.5917    6.3310  -42.1546 C   0  0  0  0  0  0  0  0  0  0  0  0
  -35.7854    7.0757  -43.2079 C   0  0  0  0  0  0  0  0  0  0  0  0
  -34.4990    6.7362  -43.2384 C   0  0  0  0  0  0  0  0  0  0  0  0
  -36.1104    3.5121  -46.1233 X   0  0  0  0  0  0  0  0  0  0  0  0
  1  2  1  0  0  0  0
  1  5  1  0  0  0  0
  1 12  1  0  0  0  0
  2  3  1  0  0  0  0
  3  4  1  0  0  0  0
  3  9  1  0  0  0  0
  4  5  1  0  0  0  0
  4  6  1  0  0  0  0
  6  7  1  0  0  0  0
  6 11  1  0  0  0  0
  7  8  1  0  0  0  0
  8  9  1  0  0  0  0
  9 10  1  0  0  0  0
 10 11  2  0  0  0  0
M  END
> <Index>
23412

> <PropertyFieldDistance>
nan

$$$$
16919280
BBcorina  12272117083D 1   1.00000     0.00000 
CORINA 4.3.0 0026  30.10.2019
 14 14  0  0  0  0  0  0  0  0999 V2000
  -37.3660    6.0435  -41.6983 C   0  0  0  0  0  0  0  0  0  0  0  0
  -36.4837    4.9864  -42.3653 C   0  0  0  0  0  0  0  0  0  0  0  0
  -37.1447    4.5137  -43.6652 C   0  0  0  0  0  0  0  0  0  0  0  0
  -36.1970    3.6423  -44.3776 N   0  0  0  0  0  0  0  0  0  0  0  0
  -34.8251    4.1337  -44.5823 C   0  0  0  0  0  0  0  0  0  0  0  0
  -34.2786    4.6270  -43.2425 C   0  0  0  0  0  0  0  0  0  0  0  0
  -32.9331    5.3219  -43.4608 C   0  0  0  0  0  0  0  0  0  0  0  0
  -35.2049    5.5505  -42.6656 O   0  0  0  0  0  0  0  0  0  0  0  0
  -36.5726    2.4276  -44.8245 C   0  0  0  0  0  0  0  0  0  0  0  0
  -37.7066    2.0382  -44.6415 O   0  0  0  0  0  0  0  0  0  0  0  0
  -35.5838    1.5531  -45.5515 C   0  0  0  0  0  0  0  0  0  0  0  0
  -36.2599    0.2392  -45.9481 C   0  0  0  0  0  0  0  0  0  0  0  0
  -35.2960   -0.6131  -46.6568 N   0  0  0  0  0  0  0  0  0  0  0  0
  -36.0126   -2.0954  -47.1189 X   0  0  0  0  0  0  0  0  0  0  0  0
  1  2  1  0  0  0  0
  2  3  1  0  0  0  0
  2  8  1  0  0  0  0
  3  4  1  0  0  0  0
  4  5  1  0  0  0  0
  4  9  1  0  0  0  0
  5  6  1  0  0  0  0
  6  7  1  0  0  0  0
  6  8  1  0  0  0  0
  9 10  2  0  0  0  0
  9 11  1  0  0  0  0
 11 12  1  0  0  0  0
 12 13  1  0  0  0  0
 13 14  1  0  0  0  0
M  END
> <Index>
23416

> <PropertyFieldDistance>
nan

$$$$
17839126
BBcorina  12272117083D 1   1.00000     0.00000 
CORINA 4.3.0 0026  30.10.2019
  9 10  0  0  0  0  0  0  0  0999 V2000
  -36.2849    4.1276  -45.0982 C   0  0  0  0  0  0  0  0  0  0  0  0
  -35.9692    3.1407  -44.0569 N   0  0  0  0  0  0  0  0  0  0  0  0
  -36.6075    3.5061  -42.7660 C   0  0  0  0  0  0  0  0  0  0  0  0
  -35.3148    2.9501  -42.1339 C   0  0  0  0  0  0  0  0  0  0  0  0
  -34.6460    3.4203  -43.4421 C   0  0  0  0  0  0  0  0  0  0  0  0
  -34.3847    4.9377  -43.4083 C   0  0  0  0  0  0  0  0  0  0  0  0
  -35.6794    5.6303  -43.5320 N   0  0  0  0  0  0  0  0  0  0  0  0
  -36.6733    5.0377  -42.6194 C   0  0  0  0  0  0  0  0  0  0  0  0
  -35.5072    7.3072  -43.2451 X   0  0  0  0  0  0  0  0  0  0  0  0
  1  2  1  0  0  0  0
  2  3  1  0  0  0  0
  2  5  1  0  0  0  0
  3  4  1  0  0  0  0
  3  8  1  0  0  0  0
  4  5  1  0  0  0  0
  5  6  1  0  0  0  0
  6  7  1  0  0  0  0
  7  8  1  0  0  0  0
  7  9  1  0  0  0  0
M  END
> <Index>
23435

> <PropertyFieldDistance>
nan

$$$$
9228556
BBcorina  12272117083D 1   1.00000     0.00000 
CORINA 4.3.0 0026  30.10.2019
 16 17  0  0  0  0  0  0  0  0999 V2000
  -37.2921   -1.5953  -46.7491 Cl  0  0  0  0  0  0  0  0  0  0  0  0
  -36.9234   -0.0516  -46.0457 C   0  0  0  0  0  0  0  0  0  0  0  0
  -37.5114    0.3203  -44.8500 C   0  0  0  0  0  0  0  0  0  0  0  0
  -37.2198    1.5480  -44.2872 C   0  0  0  0  0  0  0  0  0  0  0  0
  -36.3359    2.4094  -44.9228 C   0  0  0  0  0  0  0  0  0  0  0  0
  -36.0395    3.6525  -44.3557 N   0  0  0  0  0  0  0  0  0  0  0  0
  -36.9538    3.9571  -43.2477 C   0  0  0  0  0  0  0  0  0  0  0  0
  -36.6957    5.3803  -42.7480 C   0  0  0  0  0  0  0  0  0  0  0  0
  -35.2419    5.4972  -42.2814 C   0  0  0  0  0  0  0  0  0  0  0  0
  -34.3112    5.1272  -43.4395 C   0  0  0  0  0  0  0  0  0  0  0  0
  -34.6386    3.7112  -43.9193 C   0  0  0  0  0  0  0  0  0  0  0  0
  -32.9158    5.1801  -42.9836 N   0  0  0  0  0  0  0  0  0  0  0  0
  -35.7506    2.0359  -46.1272 C   0  0  0  0  0  0  0  0  0  0  0  0
  -34.6498    3.1124  -46.9291 Cl  0  0  0  0  0  0  0  0  0  0  0  0
  -36.0414    0.8045  -46.6820 C   0  0  0  0  0  0  0  0  0  0  0  0
  -32.6231    4.0119  -41.7695 X   0  0  0  0  0  0  0  0  0  0  0  0
  1  2  1  0  0  0  0
  2  3  2  0  0  0  0
  2 15  1  0  0  0  0
  3  4  1  0  0  0  0
  4  5  2  0  0  0  0
  5  6  1  0  0  0  0
  5 13  1  0  0  0  0
  6  7  1  0  0  0  0
  6 11  1  0  0  0  0
  7  8  1  0  0  0  0
  8  9  1  0  0  0  0
  9 10  1  0  0  0  0
 10 11  1  0  0  0  0
 10 12  1  0  0  0  0
 12 16  1  0  0  0  0
 13 14  1  0  0  0  0
 13 15  2  0  0  0  0
M  END
> <Index>
23460

> <PropertyFieldDistance>
nan

$$$$
17628698
BBcorina  12272117083D 1   1.00000     0.00000 
CORINA 4.3.0 0026  30.10.2019
 12 13  0  0  0  0  0  0  0  0999 V2000
  -38.3429    4.8323  -45.1956 N   0  0  0  0  0  0  0  0  0  0  0  0
  -37.2367    5.6510  -44.6818 C   0  0  0  0  0  0  0  0  0  0  0  0
  -36.5123    4.8895  -43.5699 C   0  0  0  0  0  0  0  0  0  0  0  0
  -37.4430    4.6046  -42.3831 C   0  0  0  0  0  0  0  0  0  0  0  0
  -36.6298    4.8274  -41.1001 C   0  0  0  0  0  0  0  0  0  0  0  0
  -35.2019    5.2303  -41.5322 C   0  0  0  0  0  0  0  0  0  0  0  0
  -35.3305    5.7113  -42.9893 C   0  0  0  0  0  0  0  0  0  0  0  0
  -34.1381    5.1538  -43.8007 C   0  0  0  0  0  0  0  0  0  0  0  0
  -34.5801    3.7678  -44.2148 C   0  0  0  0  0  0  0  0  0  0  0  0
  -33.8411    2.8948  -44.6181 O   0  0  0  0  0  0  0  0  0  0  0  0
  -35.9139    3.6479  -44.0692 N   0  0  0  0  0  0  0  0  0  0  0  0
  -39.1811    5.6481  -46.4431 X   0  0  0  0  0  0  0  0  0  0  0  0
  1  2  1  0  0  0  0
  1 12  1  0  0  0  0
  2  3  1  0  0  0  0
  3  4  1  0  0  0  0
  3  7  1  0  0  0  0
  3 11  1  0  0  0  0
  4  5  1  0  0  0  0
  5  6  1  0  0  0  0
  6  7  1  0  0  0  0
  7  8  1  0  0  0  0
  8  9  1  0  0  0  0
  9 10  2  0  0  0  0
  9 11  1  0  0  0  0
M  END
> <Index>
23465

> <PropertyFieldDistance>
nan

$$$$
17633584
BBcorina  12272117083D 1   1.00000     0.00000 
CORINA 4.3.0 0026  30.10.2019
 14 15  0  0  0  0  0  0  0  0999 V2000
  -36.3910    2.3791  -44.8771 C   0  0  0  0  0  0  0  0  0  0  0  0
  -35.9374    3.3588  -43.8810 N   0  0  0  0  0  0  0  0  0  0  0  0
  -36.8959    4.4743  -43.7617 C   0  0  0  0  0  0  0  0  0  0  0  0
  -36.9224    5.0356  -42.3553 C   0  0  0  0  0  0  0  0  0  0  0  0
  -35.6708    5.0966  -41.5916 C   0  0  0  0  0  0  0  0  0  0  0  0
  -35.7440    5.0984  -40.3810 O   0  0  0  0  0  0  0  0  0  0  0  0
  -34.4650    5.1444  -42.1406 N   0  0  0  0  0  0  0  0  0  0  0  0
  -34.2565    5.1671  -43.5773 C   0  0  0  0  0  0  0  0  0  0  0  0
  -32.8205    5.5736  -43.9140 C   0  0  0  0  0  0  0  0  0  0  0  0
  -32.6607    5.6086  -45.3749 N   0  0  0  0  0  0  0  0  0  0  0  0
  -32.9091    4.2919  -45.9745 C   0  0  0  0  0  0  0  0  0  0  0  0
  -34.3522    3.8601  -45.6948 C   0  0  0  0  0  0  0  0  0  0  0  0
  -34.5716    3.8229  -44.1807 C   0  0  0  0  0  0  0  0  0  0  0  0
  -31.1150    6.1977  -45.8084 X   0  0  0  0  0  0  0  0  0  0  0  0
  1  2  1  0  0  0  0
  2  3  1  0  0  0  0
  2 13  1  0  0  0  0
  3  4  1  0  0  0  0
  4  5  1  0  0  0  0
  5  6  2  0  0  0  0
  5  7  1  0  0  0  0
  7  8  1  0  0  0  0
  8  9  1  0  0  0  0
  8 13  1  0  0  0  0
  9 10  1  0  0  0  0
 10 11  1  0  0  0  0
 10 14  1  0  0  0  0
 11 12  1  0  0  0  0
 12 13  1  0  0  0  0
M  END
> <Index>
23472

> <PropertyFieldDistance>
nan

$$$$
17516936
BBcorina  12272117083D 1   1.00000     0.00000 
CORINA 4.3.0 0026  30.10.2019
 11 12  0  0  0  0  0  0  0  0999 V2000
  -36.0173    3.5927  -44.4913 N   0  0  0  0  0  0  0  0  0  0  0  0
  -36.3933    2.1751  -44.5753 C   0  0  0  0  0  0  0  0  0  0  0  0
  -36.1059    1.6538  -45.9847 C   0  0  0  0  0  0  0  0  0  0  0  0
  -36.4975    0.1773  -46.0721 C   0  0  0  0  0  0  0  0  0  0  0  0
  -35.6098   -0.6389  -45.1325 C   0  0  0  0  0  0  0  0  0  0  0  0
  -35.9256   -2.1258  -45.3310 C   0  0  0  0  0  0  0  0  0  0  0  0
  -35.3114   -2.5821  -46.6544 C   0  0  0  0  0  0  0  0  0  0  0  0
  -35.7933   -1.7020  -47.7970 C   0  0  0  0  0  0  0  0  0  0  0  0
  -37.2813   -1.4231  -47.9633 C   0  0  0  0  0  0  0  0  0  0  0  0
  -36.3271   -0.3073  -47.5102 C   0  0  0  0  0  0  0  0  0  0  0  0
  -36.3229    4.2163  -42.9287 X   0  0  0  0  0  0  0  0  0  0  0  0
  1  2  1  0  0  0  0
  1 11  1  0  0  0  0
  2  3  1  0  0  0  0
  3  4  1  0  0  0  0
  4  5  1  0  0  0  0
  4 10  1  0  0  0  0
  5  6  1  0  0  0  0
  6  7  1  0  0  0  0
  7  8  1  0  0  0  0
  8  9  1  0  0  0  0
  8 10  1  0  0  0  0
  9 10  1  0  0  0  0
M  END
> <Index>
23481

> <PropertyFieldDistance>
nan

$$$$
17567712
BBcorina  12272117083D 1   1.00000     0.00000 
CORINA 4.3.0 0026  30.10.2019
 13 14  0  0  0  0  0  0  0  0999 V2000
  -36.3492    2.3567  -44.9462 C   0  0  0  0  0  0  0  0  0  0  0  0
  -36.0373    3.6631  -44.3512 N   0  0  0  0  0  0  0  0  0  0  0  0
  -36.9517    3.9685  -43.2432 C   0  0  0  0  0  0  0  0  0  0  0  0
  -36.6918    5.3913  -42.7431 C   0  0  0  0  0  0  0  0  0  0  0  0
  -35.2381    5.5064  -42.2762 C   0  0  0  0  0  0  0  0  0  0  0  0
  -34.3077    5.1367  -43.4349 C   0  0  0  0  0  0  0  0  0  0  0  0
  -34.6370    3.7215  -43.9146 C   0  0  0  0  0  0  0  0  0  0  0  0
  -34.4168    2.7307  -42.7685 C   0  0  0  0  0  0  0  0  0  0  0  0
  -32.9428    2.7546  -42.3570 C   0  0  0  0  0  0  0  0  0  0  0  0
  -32.1063    2.3937  -43.5087 N   0  0  0  0  0  0  0  0  0  0  0  0
  -32.2658    3.3578  -44.6047 C   0  0  0  0  0  0  0  0  0  0  0  0
  -33.7196    3.3525  -45.0830 C   0  0  0  0  0  0  0  0  0  0  0  0
  -30.4645    2.2505  -43.0525 X   0  0  0  0  0  0  0  0  0  0  0  0
  1  2  1  0  0  0  0
  2  3  1  0  0  0  0
  2  7  1  0  0  0  0
  3  4  1  0  0  0  0
  4  5  1  0  0  0  0
  5  6  1  0  0  0  0
  6  7  1  0  0  0  0
  7  8  1  0  0  0  0
  7 12  1  0  0  0  0
  8  9  1  0  0  0  0
  9 10  1  0  0  0  0
 10 11  1  0  0  0  0
 10 13  1  0  0  0  0
 11 12  1  0  0  0  0
M  END
> <Index>
23482

> <PropertyFieldDistance>
nan

$$$$
17509646
BBcorina  12272117083D 1   1.00000     0.00000 
CORINA 4.3.0 0026  30.10.2019
 11 11  0  0  0  0  0  0  0  0999 V2000
  -33.5633    8.7145  -41.0655 N   0  0  0  0  0  0  0  0  0  0  0  0
  -33.9272    7.8319  -42.1821 C   0  0  0  0  0  0  0  0  0  0  0  0
  -35.0452    6.8853  -41.7404 C   0  0  0  0  0  0  0  0  0  0  0  0
  -35.4242    5.9661  -42.9032 C   0  0  0  0  0  0  0  0  0  0  0  0
  -36.6104    5.0831  -42.4978 C   0  0  0  0  0  0  0  0  0  0  0  0
  -37.0859    4.3074  -43.7271 C   0  0  0  0  0  0  0  0  0  0  0  0
  -35.9635    3.6395  -44.3741 N   0  0  0  0  0  0  0  0  0  0  0  0
  -34.6863    3.9753  -44.1895 C   0  0  0  0  0  0  0  0  0  0  0  0
  -33.8385    3.3735  -44.8143 O   0  0  0  0  0  0  0  0  0  0  0  0
  -34.2412    5.0583  -43.2491 C   0  0  0  0  0  0  0  0  0  0  0  0
  -32.3141    9.7912  -41.5175 X   0  0  0  0  0  0  0  0  0  0  0  0
  1  2  1  0  0  0  0
  1 11  1  0  0  0  0
  2  3  1  0  0  0  0
  3  4  1  0  0  0  0
  4  5  1  0  0  0  0
  4 10  1  0  0  0  0
  5  6  1  0  0  0  0
  6  7  1  0  0  0  0
  7  8  1  0  0  0  0
  8  9  2  0  0  0  0
  8 10  1  0  0  0  0
M  END
> <Index>
23484

> <PropertyFieldDistance>
nan

$$$$
16896028
BBcorina  12272117083D 1   1.00000     0.00000 
CORINA 4.3.0 0026  30.10.2019
 11 12  0  0  0  0  0  0  0  0999 V2000
  -38.6456    6.3131  -42.7608 O   0  0  0  0  0  0  0  0  0  0  0  0
  -37.5693    5.9861  -41.8795 C   0  0  0  0  0  0  0  0  0  0  0  0
  -36.4761    5.2532  -42.6595 C   0  0  0  0  0  0  0  0  0  0  0  0
  -35.2274    4.8573  -41.8472 C   0  0  0  0  0  0  0  0  0  0  0  0
  -34.4609    5.0534  -43.1700 C   0  0  0  0  0  0  0  0  0  0  0  0
  -33.1431    5.5059  -43.0456 F   0  0  0  0  0  0  0  0  0  0  0  0
  -35.5143    6.1381  -43.4807 C   0  0  0  0  0  0  0  0  0  0  0  0
  -36.9808    4.0700  -43.5052 C   0  0  0  0  0  0  0  0  0  0  0  0
  -36.0262    3.8486  -44.6056 N   0  0  0  0  0  0  0  0  0  0  0  0
  -34.6433    3.8383  -44.0974 C   0  0  0  0  0  0  0  0  0  0  0  0
  -36.3820    2.4011  -45.4436 X   0  0  0  0  0  0  0  0  0  0  0  0
  1  2  1  0  0  0  0
  2  3  1  0  0  0  0
  3  4  1  0  0  0  0
  3  7  1  0  0  0  0
  3  8  1  0  0  0  0
  4  5  1  0  0  0  0
  5  6  1  0  0  0  0
  5  7  1  0  0  0  0
  5 10  1  0  0  0  0
  8  9  1  0  0  0  0
  9 10  1  0  0  0  0
  9 11  1  0  0  0  0
M  END
> <Index>
23492

> <PropertyFieldDistance>
nan

$$$$
17541898
BBcorina  12272117083D 1   1.00000     0.00000 
CORINA 4.3.0 0026  30.10.2019
 10 10  0  0  0  0  0  0  0  0999 V2000
  -39.7239    1.6575  -42.4334 C   0  0  0  0  0  0  0  0  0  0  0  0
  -38.7197    2.3129  -43.2819 N   0  0  0  0  0  0  0  0  0  0  0  0
  -38.1548    3.4927  -42.6133 C   0  0  0  0  0  0  0  0  0  0  0  0
  -37.1153    4.1469  -43.5256 C   0  0  0  0  0  0  0  0  0  0  0  0
  -36.3861    5.2931  -42.7813 C   0  0  0  0  0  0  0  0  0  0  0  0
  -35.0486    5.3737  -43.5633 C   0  0  0  0  0  0  0  0  0  0  0  0
  -34.7629    3.8988  -43.9162 C   0  0  0  0  0  0  0  0  0  0  0  0
  -36.0497    3.1808  -43.8676 N   0  0  0  0  0  0  0  0  0  0  0  0
  -36.3312    2.5176  -45.1477 C   0  0  0  0  0  0  0  0  0  0  0  0
  -39.3799    2.7283  -44.8035 X   0  0  0  0  0  0  0  0  0  0  0  0
  1  2  1  0  0  0  0
  2  3  1  0  0  0  0
  2 10  1  0  0  0  0
  3  4  1  0  0  0  0
  4  5  1  0  0  0  0
  4  8  1  0  0  0  0
  5  6  1  0  0  0  0
  6  7  1  0  0  0  0
  7  8  1  0  0  0  0
  8  9  1  0  0  0  0
M  END
> <Index>
23496

> <PropertyFieldDistance>
nan

$$$$
17509664
BBcorina  12272117083D 1   1.00000     0.00000 
CORINA 4.3.0 0026  30.10.2019
 10 10  0  0  0  0  0  0  0  0999 V2000
  -39.7239    1.6575  -42.4334 C   0  0  0  0  0  0  0  0  0  0  0  0
  -38.7197    2.3129  -43.2819 N   0  0  0  0  0  0  0  0  0  0  0  0
  -38.1548    3.4927  -42.6133 C   0  0  0  0  0  0  0  0  0  0  0  0
  -37.1153    4.1469  -43.5256 C   0  0  0  0  0  0  0  0  0  0  0  0
  -36.3861    5.2931  -42.7813 C   0  0  0  0  0  0  0  0  0  0  0  0
  -35.0486    5.3737  -43.5633 C   0  0  0  0  0  0  0  0  0  0  0  0
  -34.7629    3.8988  -43.9162 C   0  0  0  0  0  0  0  0  0  0  0  0
  -36.0497    3.1808  -43.8676 N   0  0  0  0  0  0  0  0  0  0  0  0
  -36.3312    2.5176  -45.1477 C   0  0  0  0  0  0  0  0  0  0  0  0
  -39.3799    2.7283  -44.8035 X   0  0  0  0  0  0  0  0  0  0  0  0
  1  2  1  0  0  0  0
  2  3  1  0  0  0  0
  2 10  1  0  0  0  0
  3  4  1  0  0  0  0
  4  5  1  0  0  0  0
  4  8  1  0  0  0  0
  5  6  1  0  0  0  0
  6  7  1  0  0  0  0
  7  8  1  0  0  0  0
  8  9  1  0  0  0  0
M  END
> <Index>
23499

> <PropertyFieldDistance>
nan

$$$$
17509766
BBcorina  12272117083D 1   1.00000     0.00000 
CORINA 4.3.0 0026  30.10.2019
 11 12  0  0  0  0  0  0  0  0999 V2000
  -36.1186    4.5199  -40.1998 O   0  0  0  0  0  0  0  0  0  0  0  0
  -36.0042    4.0731  -41.5524 C   0  0  0  0  0  0  0  0  0  0  0  0
  -34.5207    3.9409  -41.9431 C   0  0  0  0  0  0  0  0  0  0  0  0
  -33.6876    4.3035  -40.8401 O   0  0  0  0  0  0  0  0  0  0  0  0
  -34.3002    4.9199  -43.1225 C   0  0  0  0  0  0  0  0  0  0  0  0
  -35.3915    6.0027  -42.9020 C   0  0  0  0  0  0  0  0  0  0  0  0
  -36.6108    5.1232  -42.5129 C   0  0  0  0  0  0  0  0  0  0  0  0
  -37.0350    4.3790  -43.7923 C   0  0  0  0  0  0  0  0  0  0  0  0
  -35.9562    3.4694  -44.1978 N   0  0  0  0  0  0  0  0  0  0  0  0
  -34.6851    4.1722  -44.4121 C   0  0  0  0  0  0  0  0  0  0  0  0
  -36.4007    2.5706  -45.5830 X   0  0  0  0  0  0  0  0  0  0  0  0
  1  2  1  0  0  0  0
  2  3  1  0  0  0  0
  2  7  1  0  0  0  0
  3  4  1  0  0  0  0
  3  5  1  0  0  0  0
  5  6  1  0  0  0  0
  5 10  1  0  0  0  0
  6  7  1  0  0  0  0
  7  8  1  0  0  0  0
  8  9  1  0  0  0  0
  9 10  1  0  0  0  0
  9 11  1  0  0  0  0
M  END
> <Index>
23542

> <PropertyFieldDistance>
nan

$$$$
17321640
BBcorina  12272117083D 1   1.00000     0.00000 
CORINA 4.3.0 0026  30.10.2019
 10 11  0  0  0  0  0  0  0  0999 V2000
  -34.9425    3.0792  -41.3747 C   0  0  0  0  0  0  0  0  0  0  0  0
  -35.0613    4.2197  -42.3876 C   0  0  0  0  0  0  0  0  0  0  0  0
  -34.4799    5.5775  -41.9598 C   0  0  0  0  0  0  0  0  0  0  0  0
  -35.6455    6.2344  -42.7167 C   0  0  0  0  0  0  0  0  0  0  0  0
  -36.4316    4.9347  -42.4876 C   0  0  0  0  0  0  0  0  0  0  0  0
  -37.3098    4.8995  -41.2353 C   0  0  0  0  0  0  0  0  0  0  0  0
  -37.0745    4.3652  -43.7609 C   0  0  0  0  0  0  0  0  0  0  0  0
  -36.0192    3.7079  -44.5466 N   0  0  0  0  0  0  0  0  0  0  0  0
  -34.7325    3.8553  -43.8479 C   0  0  0  0  0  0  0  0  0  0  0  0
  -35.9367    4.3575  -46.1263 X   0  0  0  0  0  0  0  0  0  0  0  0
  1  2  1  0  0  0  0
  2  3  1  0  0  0  0
  2  5  1  0  0  0  0
  2  9  1  0  0  0  0
  3  4  1  0  0  0  0
  4  5  1  0  0  0  0
  5  6  1  0  0  0  0
  5  7  1  0  0  0  0
  7  8  1  0  0  0  0
  8  9  1  0  0  0  0
  8 10  1  0  0  0  0
M  END
> <Index>
23552

> <PropertyFieldDistance>
nan

$$$$
17310334
BBcorina  12272117083D 1   1.00000     0.00000 
CORINA 4.3.0 0026  30.10.2019
 12 12  0  0  0  0  0  0  0  0999 V2000
  -35.6568    1.0696  -47.0013 C   0  0  0  0  0  0  0  0  0  0  0  0
  -35.3506    1.9735  -45.8897 N   0  0  0  0  0  0  0  0  0  0  0  0
  -33.9646    2.3688  -45.6274 C   0  0  0  0  0  0  0  0  0  0  0  0
  -36.3442    2.4414  -45.1084 C   0  0  0  0  0  0  0  0  0  0  0  0
  -37.4804    2.0367  -45.2622 O   0  0  0  0  0  0  0  0  0  0  0  0
  -36.0783    3.3579  -44.1567 N   0  0  0  0  0  0  0  0  0  0  0  0
  -37.0792    4.0331  -43.3105 C   0  0  0  0  0  0  0  0  0  0  0  0
  -36.4012    5.3555  -42.8730 C   0  0  0  0  0  0  0  0  0  0  0  0
  -34.9306    4.9015  -42.6767 C   0  0  0  0  0  0  0  0  0  0  0  0
  -34.7421    3.8493  -43.7898 C   0  0  0  0  0  0  0  0  0  0  0  0
  -34.0087    6.0294  -42.8661 N   0  0  0  0  0  0  0  0  0  0  0  0
  -34.2791    6.7957  -44.3707 X   0  0  0  0  0  0  0  0  0  0  0  0
  1  2  1  0  0  0  0
  2  3  1  0  0  0  0
  2  4  1  0  0  0  0
  4  5  2  0  0  0  0
  4  6  1  0  0  0  0
  6  7  1  0  0  0  0
  6 10  1  0  0  0  0
  7  8  1  0  0  0  0
  8  9  1  0  0  0  0
  9 10  1  0  0  0  0
  9 11  1  0  0  0  0
 11 12  1  0  0  0  0
M  END
> <Index>
23554

> <PropertyFieldDistance>
nan

$$$$
17309356
BBcorina  12272117083D 1   1.00000     0.00000 
CORINA 4.3.0 0026  30.10.2019
 13 14  0  0  0  0  0  0  0  0999 V2000
  -34.4408    5.3999  -39.1390 N   0  0  0  0  0  0  0  0  0  0  0  0
  -34.5862    6.4588  -40.0179 C   0  0  0  0  0  0  0  0  0  0  0  0
  -34.4061    7.7319  -39.7434 N   0  0  0  0  0  0  0  0  0  0  0  0
  -34.6232    8.4518  -40.7845 N   0  0  0  0  0  0  0  0  0  0  0  0
  -34.9461    7.7057  -41.7850 N   0  0  0  0  0  0  0  0  0  0  0  0
  -34.9403    6.3786  -41.3214 N   0  0  0  0  0  0  0  0  0  0  0  0
  -35.2462    5.1676  -42.0870 C   0  0  0  0  0  0  0  0  0  0  0  0
  -36.6793    5.2476  -42.6202 C   0  0  0  0  0  0  0  0  0  0  0  0
  -36.9723    4.0087  -43.4695 C   0  0  0  0  0  0  0  0  0  0  0  0
  -36.0191    3.9414  -44.5845 N   0  0  0  0  0  0  0  0  0  0  0  0
  -34.6396    3.8164  -44.0970 C   0  0  0  0  0  0  0  0  0  0  0  0
  -34.2770    5.0496  -43.2665 C   0  0  0  0  0  0  0  0  0  0  0  0
  -36.4111    2.6621  -45.6494 X   0  0  0  0  0  0  0  0  0  0  0  0
  1  2  1  0  0  0  0
  2  3  2  0  0  0  0
  2  6  1  0  0  0  0
  3  4  1  0  0  0  0
  4  5  2  0  0  0  0
  5  6  1  0  0  0  0
  6  7  1  0  0  0  0
  7  8  1  0  0  0  0
  7 12  1  0  0  0  0
  8  9  1  0  0  0  0
  9 10  1  0  0  0  0
 10 11  1  0  0  0  0
 10 13  1  0  0  0  0
 11 12  1  0  0  0  0
M  END
> <Index>
23557

> <PropertyFieldDistance>
nan

$$$$
16899852
BBcorina  12272117083D 1   1.00000     0.00000 
CORINA 4.3.0 0026  30.10.2019
  8  8  0  0  0  0  0  0  0  0999 V2000
  -36.1316    5.7199  -42.1981 C   0  0  0  0  0  0  0  0  0  0  0  0
  -36.2206    4.9859  -43.4210 O   0  0  0  0  0  0  0  0  0  0  0  0
  -35.5865    3.7060  -43.3781 C   0  0  0  0  0  0  0  0  0  0  0  0
  -35.7434    3.0134  -44.7333 C   0  0  0  0  0  0  0  0  0  0  0  0
  -36.5509    1.7136  -44.7738 C   0  0  0  0  0  0  0  0  0  0  0  0
  -35.0293    1.6746  -44.9293 C   0  0  0  0  0  0  0  0  0  0  0  0
  -34.2454    1.1525  -43.8019 N   0  0  0  0  0  0  0  0  0  0  0  0
  -32.6575    1.7870  -43.8137 X   0  0  0  0  0  0  0  0  0  0  0  0
  1  2  1  0  0  0  0
  2  3  1  0  0  0  0
  3  4  1  0  0  0  0
  4  5  1  0  0  0  0
  4  6  1  0  0  0  0
  5  6  1  0  0  0  0
  6  7  1  0  0  0  0
  7  8  1  0  0  0  0
M  END
> <Index>
23566

> <PropertyFieldDistance>
nan

$$$$
16899956
BBcorina  12272117083D 1   1.00000     0.00000 
CORINA 4.3.0 0026  30.10.2019
  8  8  0  0  0  0  0  0  0  0999 V2000
  -36.1316    5.7199  -42.1981 C   0  0  0  0  0  0  0  0  0  0  0  0
  -36.2206    4.9859  -43.4210 O   0  0  0  0  0  0  0  0  0  0  0  0
  -35.5865    3.7060  -43.3781 C   0  0  0  0  0  0  0  0  0  0  0  0
  -35.7434    3.0134  -44.7333 C   0  0  0  0  0  0  0  0  0  0  0  0
  -36.5509    1.7136  -44.7738 C   0  0  0  0  0  0  0  0  0  0  0  0
  -35.0293    1.6746  -44.9293 C   0  0  0  0  0  0  0  0  0  0  0  0
  -34.2454    1.1525  -43.8019 N   0  0  0  0  0  0  0  0  0  0  0  0
  -32.6575    1.7870  -43.8137 X   0  0  0  0  0  0  0  0  0  0  0  0
  1  2  1  0  0  0  0
  2  3  1  0  0  0  0
  3  4  1  0  0  0  0
  4  5  1  0  0  0  0
  4  6  1  0  0  0  0
  5  6  1  0  0  0  0
  6  7  1  0  0  0  0
  7  8  1  0  0  0  0
M  END
> <Index>
23567

> <PropertyFieldDistance>
nan

$$$$
16895308
BBcorina  12272117083D 1   1.00000     0.00000 
CORINA 4.3.0 0026  30.10.2019
 10 10  0  0  0  0  0  0  0  0999 V2000
  -37.6835    6.1405  -42.1390 C   0  0  0  0  0  0  0  0  0  0  0  0
  -36.6101    5.1169  -42.5144 C   0  0  0  0  0  0  0  0  0  0  0  0
  -37.0250    4.3873  -43.7948 C   0  0  0  0  0  0  0  0  0  0  0  0
  -35.9554    3.4606  -44.1930 N   0  0  0  0  0  0  0  0  0  0  0  0
  -34.6941    4.1836  -44.4110 C   0  0  0  0  0  0  0  0  0  0  0  0
  -34.3026    4.9152  -43.1245 C   0  0  0  0  0  0  0  0  0  0  0  0
  -34.0474    3.8944  -42.0136 C   0  0  0  0  0  0  0  0  0  0  0  0
  -33.0328    5.7333  -43.3680 C   0  0  0  0  0  0  0  0  0  0  0  0
  -35.3661    5.7886  -42.7352 O   0  0  0  0  0  0  0  0  0  0  0  0
  -36.4010    2.5723  -45.5847 X   0  0  0  0  0  0  0  0  0  0  0  0
  1  2  1  0  0  0  0
  2  3  1  0  0  0  0
  2  9  1  0  0  0  0
  3  4  1  0  0  0  0
  4  5  1  0  0  0  0
  4 10  1  0  0  0  0
  5  6  1  0  0  0  0
  6  7  1  0  0  0  0
  6  8  1  0  0  0  0
  6  9  1  0  0  0  0
M  END
> <Index>
23572

> <PropertyFieldDistance>
nan

$$$$
16900818
BBcorina  12272117083D 1   1.00000     0.00000 
CORINA 4.3.0 0026  30.10.2019
 11 12  0  0  0  0  0  0  0  0999 V2000
  -36.0353    2.3114  -44.6760 C   0  0  0  0  0  0  0  0  0  0  0  0
  -36.1302    3.4650  -43.7714 N   0  0  0  0  0  0  0  0  0  0  0  0
  -37.2069    4.3820  -44.1946 C   0  0  0  0  0  0  0  0  0  0  0  0
  -36.2605    5.5536  -43.8907 C   0  0  0  0  0  0  0  0  0  0  0  0
  -35.1746    4.5111  -44.1514 C   0  0  0  0  0  0  0  0  0  0  0  0
  -33.8066    4.6134  -43.4725 C   0  0  0  0  0  0  0  0  0  0  0  0
  -33.2887    5.2038  -44.7963 C   0  0  0  0  0  0  0  0  0  0  0  0
  -31.9005    4.6960  -45.1914 C   0  0  0  0  0  0  0  0  0  0  0  0
  -31.4603    5.3773  -46.4162 N   0  0  0  0  0  0  0  0  0  0  0  0
  -34.4407    4.4583  -45.4935 C   0  0  0  0  0  0  0  0  0  0  0  0
  -29.9096    4.8377  -46.8939 X   0  0  0  0  0  0  0  0  0  0  0  0
  1  2  1  0  0  0  0
  2  3  1  0  0  0  0
  2  5  1  0  0  0  0
  3  4  1  0  0  0  0
  4  5  1  0  0  0  0
  5  6  1  0  0  0  0
  5 10  1  0  0  0  0
  6  7  1  0  0  0  0
  7  8  1  0  0  0  0
  7 10  1  0  0  0  0
  8  9  1  0  0  0  0
  9 11  1  0  0  0  0
M  END
> <Index>
23573

> <PropertyFieldDistance>
nan

$$$$
6665694
BBcorina  12272117083D 1   1.00000     0.00000 
CORINA 4.3.0 0026  30.10.2019
 16 17  0  0  0  0  0  0  0  0999 V2000
  -35.1384    0.1286  -47.6750 C   0  0  0  0  0  0  0  0  0  0  0  0
  -35.9162    0.6988  -46.5170 C   0  0  0  0  0  0  0  0  0  0  0  0
  -35.5872    1.9341  -45.9949 C   0  0  0  0  0  0  0  0  0  0  0  0
  -36.3335    2.4189  -44.9185 C   0  0  0  0  0  0  0  0  0  0  0  0
  -37.3338    1.6817  -44.4454 N   0  0  0  0  0  0  0  0  0  0  0  0
  -37.6160    0.5098  -44.9780 C   0  0  0  0  0  0  0  0  0  0  0  0
  -38.7580   -0.2953  -44.4135 C   0  0  0  0  0  0  0  0  0  0  0  0
  -36.9278    0.0227  -45.9905 N   0  0  0  0  0  0  0  0  0  0  0  0
  -36.0398    3.6507  -44.3565 N   0  0  0  0  0  0  0  0  0  0  0  0
  -36.9543    3.9551  -43.2487 C   0  0  0  0  0  0  0  0  0  0  0  0
  -36.6963    5.3783  -42.7489 C   0  0  0  0  0  0  0  0  0  0  0  0
  -35.2426    5.4944  -42.2820 C   0  0  0  0  0  0  0  0  0  0  0  0
  -34.3118    5.1254  -43.4404 C   0  0  0  0  0  0  0  0  0  0  0  0
  -34.6389    3.7094  -43.9202 C   0  0  0  0  0  0  0  0  0  0  0  0
  -34.9726    6.8739  -41.8556 N   0  0  0  0  0  0  0  0  0  0  0  0
  -33.7814    6.9143  -40.6294 X   0  0  0  0  0  0  0  0  0  0  0  0
  1  2  1  0  0  0  0
  2  3  2  0  0  0  0
  2  8  1  0  0  0  0
  3  4  1  0  0  0  0
  4  5  2  0  0  0  0
  4  9  1  0  0  0  0
  5  6  1  0  0  0  0
  6  7  1  0  0  0  0
  6  8  2  0  0  0  0
  9 10  1  0  0  0  0
  9 14  1  0  0  0  0
 10 11  1  0  0  0  0
 11 12  1  0  0  0  0
 12 13  1  0  0  0  0
 12 15  1  0  0  0  0
 13 14  1  0  0  0  0
 15 16  1  0  0  0  0
M  END
> <Index>
23588

> <PropertyFieldDistance>
nan

$$$$
17510452
BBcorina  12272117083D 1   1.00000     0.00000 
CORINA 4.3.0 0026  30.10.2019
 14 14  0  0  0  0  0  0  0  0999 V2000
  -40.7212    3.2408  -43.7964 C   0  0  0  0  0  0  0  0  0  0  0  0
  -39.5356    4.0263  -44.0893 O   0  0  0  0  0  0  0  0  0  0  0  0
  -38.4287    3.7449  -43.3842 C   0  0  0  0  0  0  0  0  0  0  0  0
  -38.4497    2.8711  -42.5499 O   0  0  0  0  0  0  0  0  0  0  0  0
  -37.1597    4.5186  -43.6330 C   0  0  0  0  0  0  0  0  0  0  0  0
  -36.5277    4.9152  -42.2946 C   0  0  0  0  0  0  0  0  0  0  0  0
  -35.2169    5.5318  -42.5392 N   0  0  0  0  0  0  0  0  0  0  0  0
  -34.2882    4.5796  -43.1623 C   0  0  0  0  0  0  0  0  0  0  0  0
  -34.8283    4.1691  -44.5365 C   0  0  0  0  0  0  0  0  0  0  0  0
  -36.2043    3.6772  -44.3696 N   0  0  0  0  0  0  0  0  0  0  0  0
  -36.5799    2.4870  -44.8786 C   0  0  0  0  0  0  0  0  0  0  0  0
  -37.7461    2.1556  -44.8486 O   0  0  0  0  0  0  0  0  0  0  0  0
  -35.5508    1.5682  -45.4850 C   0  0  0  0  0  0  0  0  0  0  0  0
  -34.5615    6.1713  -41.0950 X   0  0  0  0  0  0  0  0  0  0  0  0
  1  2  1  0  0  0  0
  2  3  1  0  0  0  0
  3  4  2  0  0  0  0
  3  5  1  0  0  0  0
  5  6  1  0  0  0  0
  5 10  1  0  0  0  0
  6  7  1  0  0  0  0
  7  8  1  0  0  0  0
  7 14  1  0  0  0  0
  8  9  1  0  0  0  0
  9 10  1  0  0  0  0
 10 11  1  0  0  0  0
 11 12  2  0  0  0  0
 11 13  1  0  0  0  0
M  END
> <Index>
23589

> <PropertyFieldDistance>
nan

$$$$
17518412
BBcorina  12272117083D 1   1.00000     0.00000 
CORINA 4.3.0 0026  30.10.2019
  9  9  0  0  0  0  0  0  0  0999 V2000
  -35.5410    5.9743  -43.7242 C   0  0  0  0  0  0  0  0  0  0  0  0
  -35.5205    4.4674  -43.7325 C   0  0  0  0  0  0  0  0  0  0  0  0
  -35.5285    3.8666  -44.8790 C   0  0  0  0  0  0  0  0  0  0  0  0
  -35.5156    2.3755  -45.0470 C   0  0  0  0  0  0  0  0  0  0  0  0
  -35.0808    1.7007  -43.7442 C   0  0  0  0  0  0  0  0  0  0  0  0
  -35.9039    2.2925  -42.5931 C   0  0  0  0  0  0  0  0  0  0  0  0
  -35.4983    3.7567  -42.4109 C   0  0  0  0  0  0  0  0  0  0  0  0
  -35.3195    0.2537  -43.8290 N   0  0  0  0  0  0  0  0  0  0  0  0
  -36.9727   -0.0790  -44.1128 X   0  0  0  0  0  0  0  0  0  0  0  0
  1  2  1  0  0  0  0
  2  3  2  0  0  0  0
  2  7  1  0  0  0  0
  3  4  1  0  0  0  0
  4  5  1  0  0  0  0
  5  6  1  0  0  0  0
  5  8  1  0  0  0  0
  6  7  1  0  0  0  0
  8  9  1  0  0  0  0
M  END
> <Index>
23591

> <PropertyFieldDistance>
nan

$$$$
9279268
BBcorina  12272117083D 1   1.00000     0.00000 
CORINA 4.3.0 0026  30.10.2019
 14 15  0  0  0  0  0  0  0  0999 V2000
  -36.9162    6.5353  -42.5675 N   0  0  0  0  0  0  0  0  0  0  0  0
  -36.3876    5.1647  -42.5767 C   0  0  0  0  0  0  0  0  0  0  0  0
  -37.0891    4.3113  -43.6591 C   0  0  0  0  0  0  0  0  0  0  0  0
  -36.0479    3.4243  -44.1910 N   0  0  0  0  0  0  0  0  0  0  0  0
  -34.8192    3.8713  -43.8783 C   0  0  0  0  0  0  0  0  0  0  0  0
  -33.7813    3.3349  -44.2038 O   0  0  0  0  0  0  0  0  0  0  0  0
  -34.9197    5.1409  -43.0619 C   0  0  0  0  0  0  0  0  0  0  0  0
  -36.3012    2.2656  -44.9332 C   0  0  0  0  0  0  0  0  0  0  0  0
  -35.2490    1.5582  -45.4999 C   0  0  0  0  0  0  0  0  0  0  0  0
  -35.5025    0.4146  -46.2315 C   0  0  0  0  0  0  0  0  0  0  0  0
  -36.8023   -0.0266  -46.3997 C   0  0  0  0  0  0  0  0  0  0  0  0
  -37.8525    0.6784  -45.8412 C   0  0  0  0  0  0  0  0  0  0  0  0
  -37.6054    1.8202  -45.1044 C   0  0  0  0  0  0  0  0  0  0  0  0
  -36.9326    7.1963  -44.1446 X   0  0  0  0  0  0  0  0  0  0  0  0
  1  2  1  0  0  0  0
  1 14  1  0  0  0  0
  2  3  1  0  0  0  0
  2  7  1  0  0  0  0
  3  4  1  0  0  0  0
  4  5  1  0  0  0  0
  4  8  1  0  0  0  0
  5  6  2  0  0  0  0
  5  7  1  0  0  0  0
  8  9  2  0  0  0  0
  8 13  1  0  0  0  0
  9 10  1  0  0  0  0
 10 11  2  0  0  0  0
 11 12  1  0  0  0  0
 12 13  2  0  0  0  0
M  END
> <Index>
23594

> <PropertyFieldDistance>
nan

$$$$
11758010
BBcorina  12272117083D 1   1.00000     0.00000 
CORINA 4.3.0 0026  30.10.2019
 12 13  0  0  0  0  0  0  0  0999 V2000
  -36.0053    3.6168  -44.3795 N   0  0  0  0  0  0  0  0  0  0  0  0
  -37.0062    4.4929  -43.7549 C   0  0  0  0  0  0  0  0  0  0  0  0
  -36.5675    4.8274  -42.3272 C   0  0  0  0  0  0  0  0  0  0  0  0
  -35.2505    5.4785  -42.3622 N   0  0  0  0  0  0  0  0  0  0  0  0
  -34.2495    4.6025  -42.9870 C   0  0  0  0  0  0  0  0  0  0  0  0
  -34.6883    4.2678  -44.4145 C   0  0  0  0  0  0  0  0  0  0  0  0
  -34.8488    5.8639  -41.0820 C   0  0  0  0  0  0  0  0  0  0  0  0
  -35.5504    5.6834  -39.9589 N   0  0  0  0  0  0  0  0  0  0  0  0
  -34.8862    6.1659  -38.9395 C   0  0  0  0  0  0  0  0  0  0  0  0
  -33.7285    6.6729  -39.3948 N   0  0  0  0  0  0  0  0  0  0  0  0
  -33.7228    6.4679  -40.7841 N   0  0  0  0  0  0  0  0  0  0  0  0
  -36.4974    3.1447  -45.9477 X   0  0  0  0  0  0  0  0  0  0  0  0
  1  2  1  0  0  0  0
  1  6  1  0  0  0  0
  1 12  1  0  0  0  0
  2  3  1  0  0  0  0
  3  4  1  0  0  0  0
  4  5  1  0  0  0  0
  4  7  1  0  0  0  0
  5  6  1  0  0  0  0
  7  8  1  0  0  0  0
  7 11  2  0  0  0  0
  8  9  2  0  0  0  0
  9 10  1  0  0  0  0
 10 11  1  0  0  0  0
M  END
> <Index>
23599

> <PropertyFieldDistance>
nan

$$$$
8261476
BBcorina  12272117083D 1   1.00000     0.00000 
CORINA 4.3.0 0026  30.10.2019
 14 14  0  0  0  0  0  0  0  0999 V2000
  -37.0654    0.5301  -49.1706 C   0  0  0  0  0  0  0  0  0  0  0  0
  -36.7541    1.6665  -48.3220 O   0  0  0  0  0  0  0  0  0  0  0  0
  -36.6188    1.4269  -47.0082 C   0  0  0  0  0  0  0  0  0  0  0  0
  -36.7560    0.3049  -46.5814 O   0  0  0  0  0  0  0  0  0  0  0  0
  -36.2958    2.5575  -46.0655 C   0  0  0  0  0  0  0  0  0  0  0  0
  -36.1972    2.0180  -44.6372 C   0  0  0  0  0  0  0  0  0  0  0  0
  -35.8823    3.1201  -43.7183 N   0  0  0  0  0  0  0  0  0  0  0  0
  -36.9900    4.0836  -43.6524 C   0  0  0  0  0  0  0  0  0  0  0  0
  -36.6569    5.1706  -42.6277 C   0  0  0  0  0  0  0  0  0  0  0  0
  -35.4052    5.8370  -43.0138 N   0  0  0  0  0  0  0  0  0  0  0  0
  -34.2975    4.8734  -43.0796 C   0  0  0  0  0  0  0  0  0  0  0  0
  -34.6308    3.7865  -44.1043 C   0  0  0  0  0  0  0  0  0  0  0  0
  -33.4974    2.7595  -44.1458 C   0  0  0  0  0  0  0  0  0  0  0  0
  -35.0388    7.1198  -41.9441 X   0  0  0  0  0  0  0  0  0  0  0  0
  1  2  1  0  0  0  0
  2  3  1  0  0  0  0
  3  4  2  0  0  0  0
  3  5  1  0  0  0  0
  5  6  1  0  0  0  0
  6  7  1  0  0  0  0
  7  8  1  0  0  0  0
  7 12  1  0  0  0  0
  8  9  1  0  0  0  0
  9 10  1  0  0  0  0
 10 11  1  0  0  0  0
 10 14  1  0  0  0  0
 11 12  1  0  0  0  0
 12 13  1  0  0  0  0
M  END
> <Index>
23604

> <PropertyFieldDistance>
nan

$$$$
17547096
BBcorina  12272117083D 1   1.00000     0.00000 
CORINA 4.3.0 0026  30.10.2019
 12 13  0  0  0  0  0  0  0  0999 V2000
  -36.0599    3.5392  -44.4053 N   0  0  0  0  0  0  0  0  0  0  0  0
  -37.0096    4.5484  -43.8699 C   0  0  0  0  0  0  0  0  0  0  0  0
  -36.4667    4.8276  -42.4447 C   0  0  0  0  0  0  0  0  0  0  0  0
  -34.9394    4.7665  -42.6419 C   0  0  0  0  0  0  0  0  0  0  0  0
  -34.7215    3.9480  -43.9232 C   0  0  0  0  0  0  0  0  0  0  0  0
  -34.3033    4.0297  -41.4485 C   0  0  0  0  0  0  0  0  0  0  0  0
  -32.9858    3.4872  -41.7853 C   0  0  0  0  0  0  0  0  0  0  0  0
  -31.9907    4.5950  -42.1843 C   0  0  0  0  0  0  0  0  0  0  0  0
  -32.2772    5.0289  -43.5974 C   0  0  0  0  0  0  0  0  0  0  0  0
  -33.2810    6.1940  -43.6642 C   0  0  0  0  0  0  0  0  0  0  0  0
  -34.3854    6.0486  -42.7479 O   0  0  0  0  0  0  0  0  0  0  0  0
  -36.1092    3.4971  -46.1141 X   0  0  0  0  0  0  0  0  0  0  0  0
  1  2  1  0  0  0  0
  1  5  1  0  0  0  0
  1 12  1  0  0  0  0
  2  3  1  0  0  0  0
  3  4  1  0  0  0  0
  4  5  1  0  0  0  0
  4  6  1  0  0  0  0
  4 11  1  0  0  0  0
  6  7  1  0  0  0  0
  7  8  1  0  0  0  0
  8  9  1  0  0  0  0
  9 10  1  0  0  0  0
 10 11  1  0  0  0  0
M  END
> <Index>
23624

> <PropertyFieldDistance>
nan

$$$$
17550780
BBcorina  12272117083D 1   1.00000     0.00000 
CORINA 4.3.0 0026  30.10.2019
  9 10  0  0  0  0  0  0  0  0999 V2000
  -37.6243    1.4481  -43.0790 N   0  0  0  0  0  0  0  0  0  0  0  0
  -36.5516    1.9813  -43.9293 C   0  0  0  0  0  0  0  0  0  0  0  0
  -35.1642    1.6162  -43.3445 C   0  0  0  0  0  0  0  0  0  0  0  0
  -34.2404    2.7065  -43.9446 C   0  0  0  0  0  0  0  0  0  0  0  0
  -35.1063    3.9784  -43.9324 C   0  0  0  0  0  0  0  0  0  0  0  0
  -34.6735    5.2260  -44.6961 C   0  0  0  0  0  0  0  0  0  0  0  0
  -34.6602    5.2195  -43.1653 C   0  0  0  0  0  0  0  0  0  0  0  0
  -36.5726    3.5250  -43.9208 C   0  0  0  0  0  0  0  0  0  0  0  0
  -38.1695   -0.0659  -43.6576 X   0  0  0  0  0  0  0  0  0  0  0  0
  1  2  1  0  0  0  0
  1  9  1  0  0  0  0
  2  3  1  0  0  0  0
  2  8  1  0  0  0  0
  3  4  1  0  0  0  0
  4  5  1  0  0  0  0
  5  6  1  0  0  0  0
  5  7  1  0  0  0  0
  5  8  1  0  0  0  0
  6  7  1  0  0  0  0
M  END
> <Index>
23625

> <PropertyFieldDistance>
nan

$$$$
17514090
BBcorina  12272117083D 1   1.00000     0.00000 
CORINA 4.3.0 0026  30.10.2019
 11 12  0  0  0  0  0  0  0  0999 V2000
  -38.3323    3.6796  -39.3323 C   0  0  0  0  0  0  0  0  0  0  0  0
  -38.0989    3.7958  -40.8399 C   0  0  0  0  0  0  0  0  0  0  0  0
  -37.3500    5.0954  -41.1404 C   0  0  0  0  0  0  0  0  0  0  0  0
  -37.1538    5.2327  -42.6527 C   0  0  0  0  0  0  0  0  0  0  0  0
  -36.3852    4.0182  -43.1728 C   0  0  0  0  0  0  0  0  0  0  0  0
  -34.8964    4.0388  -42.8105 C   0  0  0  0  0  0  0  0  0  0  0  0
  -34.7225    3.4796  -44.2300 C   0  0  0  0  0  0  0  0  0  0  0  0
  -35.9962    4.1326  -44.5875 N   0  0  0  0  0  0  0  0  0  0  0  0
  -37.0741    2.6960  -42.8363 C   0  0  0  0  0  0  0  0  0  0  0  0
  -37.2719    2.6019  -41.3208 C   0  0  0  0  0  0  0  0  0  0  0  0
  -36.9533    3.1122  -45.5708 X   0  0  0  0  0  0  0  0  0  0  0  0
  1  2  1  0  0  0  0
  2  3  1  0  0  0  0
  2 10  1  0  0  0  0
  3  4  1  0  0  0  0
  4  5  1  0  0  0  0
  5  6  1  0  0  0  0
  5  8  1  0  0  0  0
  5  9  1  0  0  0  0
  6  7  1  0  0  0  0
  7  8  1  0  0  0  0
  8 11  1  0  0  0  0
  9 10  1  0  0  0  0
M  END
> <Index>
23638

> <PropertyFieldDistance>
nan

$$$$
17631898
BBcorina  12272117083D 1   1.00000     0.00000 
CORINA 4.3.0 0026  30.10.2019
 14 15  0  0  0  0  0  0  0  0999 V2000
  -36.5672    1.1880  -46.9493 F   0  0  0  0  0  0  0  0  0  0  0  0
  -36.8902    2.1400  -45.9763 C   0  0  0  0  0  0  0  0  0  0  0  0
  -37.9482    1.6661  -45.1932 F   0  0  0  0  0  0  0  0  0  0  0  0
  -37.2695    3.3336  -46.5996 F   0  0  0  0  0  0  0  0  0  0  0  0
  -35.6897    2.3901  -45.1004 C   0  0  0  0  0  0  0  0  0  0  0  0
  -34.6537    1.7945  -45.3069 O   0  0  0  0  0  0  0  0  0  0  0  0
  -35.7673    3.2760  -44.0876 N   0  0  0  0  0  0  0  0  0  0  0  0
  -36.9450    4.0821  -43.7008 C   0  0  0  0  0  0  0  0  0  0  0  0
  -36.4938    4.8883  -42.4435 C   0  0  0  0  0  0  0  0  0  0  0  0
  -35.5030    3.8465  -41.8076 C   0  0  0  0  0  0  0  0  0  0  0  0
  -34.6816    3.6417  -43.1307 C   0  0  0  0  0  0  0  0  0  0  0  0
  -34.3584    5.1294  -43.4717 C   0  0  0  0  0  0  0  0  0  0  0  0
  -35.5298    5.8990  -42.9878 N   0  0  0  0  0  0  0  0  0  0  0  0
  -36.2390    6.7987  -44.2574 X   0  0  0  0  0  0  0  0  0  0  0  0
  1  2  1  0  0  0  0
  2  3  1  0  0  0  0
  2  4  1  0  0  0  0
  2  5  1  0  0  0  0
  5  6  2  0  0  0  0
  5  7  1  0  0  0  0
  7  8  1  0  0  0  0
  7 11  1  0  0  0  0
  8  9  1  0  0  0  0
  9 10  1  0  0  0  0
  9 13  1  0  0  0  0
 10 11  1  0  0  0  0
 11 12  1  0  0  0  0
 12 13  1  0  0  0  0
 13 14  1  0  0  0  0
M  END
> <Index>
23669

> <PropertyFieldDistance>
nan

$$$$
5631406
BBcorina  12272117083D 1   1.00000     0.00000 
CORINA 4.3.0 0026  30.10.2019
 16 17  0  0  0  0  0  0  0  0999 V2000
  -39.3233    0.6437  -46.3409 C   0  0  0  0  0  0  0  0  0  0  0  0
  -37.8151    0.8516  -46.1892 C   0  0  0  0  0  0  0  0  0  0  0  0
  -37.5659    1.9815  -45.2906 N   0  0  0  0  0  0  0  0  0  0  0  0
  -36.3012    2.3512  -45.0076 C   0  0  0  0  0  0  0  0  0  0  0  0
  -35.3669    1.7471  -45.4982 O   0  0  0  0  0  0  0  0  0  0  0  0
  -36.0719    3.3906  -44.1810 N   0  0  0  0  0  0  0  0  0  0  0  0
  -37.1120    4.1924  -43.5313 C   0  0  0  0  0  0  0  0  0  0  0  0
  -36.3539    5.2413  -42.7015 C   0  0  0  0  0  0  0  0  0  0  0  0
  -34.8928    4.9430  -42.9534 C   0  0  0  0  0  0  0  0  0  0  0  0
  -33.7492    5.5555  -42.4765 C   0  0  0  0  0  0  0  0  0  0  0  0
  -32.5033    5.0908  -42.8504 C   0  0  0  0  0  0  0  0  0  0  0  0
  -32.4025    4.0117  -43.7198 C   0  0  0  0  0  0  0  0  0  0  0  0
  -31.1450    3.5420  -44.1060 N   0  0  0  0  0  0  0  0  0  0  0  0
  -33.5479    3.3975  -44.1995 C   0  0  0  0  0  0  0  0  0  0  0  0
  -34.8062    3.8617  -43.8171 C   0  0  0  0  0  0  0  0  0  0  0  0
  -29.7307    4.2995  -43.5144 X   0  0  0  0  0  0  0  0  0  0  0  0
  1  2  1  0  0  0  0
  2  3  1  0  0  0  0
  3  4  1  0  0  0  0
  4  5  2  0  0  0  0
  4  6  1  0  0  0  0
  6  7  1  0  0  0  0
  6 15  1  0  0  0  0
  7  8  1  0  0  0  0
  8  9  1  0  0  0  0
  9 10  2  0  0  0  0
  9 15  1  0  0  0  0
 10 11  1  0  0  0  0
 11 12  2  0  0  0  0
 12 13  1  0  0  0  0
 12 14  1  0  0  0  0
 13 16  1  0  0  0  0
 14 15  2  0  0  0  0
M  END
> <Index>
23693

> <PropertyFieldDistance>
nan

$$$$
6389358
BBcorina  12272117083D 1   1.00000     0.00000 
CORINA 4.3.0 0026  30.10.2019
 11 12  0  0  0  0  0  0  0  0999 V2000
  -36.3969    2.7083  -44.8866 C   0  0  0  0  0  0  0  0  0  0  0  0
  -35.7800    3.4108  -43.7536 N   0  0  0  0  0  0  0  0  0  0  0  0
  -36.8138    3.8400  -42.7619 C   0  0  0  0  0  0  0  0  0  0  0  0
  -37.2919    5.1614  -43.4906 C   0  0  0  0  0  0  0  0  0  0  0  0
  -35.9163    5.7884  -43.8322 C   0  0  0  0  0  0  0  0  0  0  0  0
  -35.0428    4.6065  -44.2102 C   0  0  0  0  0  0  0  0  0  0  0  0
  -33.6492    4.5107  -43.5302 C   0  0  0  0  0  0  0  0  0  0  0  0
  -33.8314    4.8296  -42.1385 N   0  0  0  0  0  0  0  0  0  0  0  0
  -34.7182    3.9650  -41.3809 C   0  0  0  0  0  0  0  0  0  0  0  0
  -36.1029    4.5146  -41.5472 C   0  0  0  0  0  0  0  0  0  0  0  0
  -32.3253    5.0064  -41.3481 X   0  0  0  0  0  0  0  0  0  0  0  0
  1  2  1  0  0  0  0
  2  3  1  0  0  0  0
  2  6  1  0  0  0  0
  3  4  1  0  0  0  0
  3 10  1  0  0  0  0
  4  5  1  0  0  0  0
  5  6  1  0  0  0  0
  6  7  1  0  0  0  0
  7  8  1  0  0  0  0
  8  9  1  0  0  0  0
  8 11  1  0  0  0  0
  9 10  1  0  0  0  0
M  END
> <Index>
23699

> <PropertyFieldDistance>
nan

$$$$
17761994
BBcorina  12272117083D 1   1.00000     0.00000 
CORINA 4.3.0 0026  30.10.2019
 12 13  0  0  0  0  0  0  0  0999 V2000
  -34.9571    6.9442  -41.8334 C   0  0  0  0  0  0  0  0  0  0  0  0
  -35.3835    6.0131  -42.9701 C   0  0  0  0  0  0  0  0  0  0  0  0
  -36.6556    5.2623  -42.5668 C   0  0  0  0  0  0  0  0  0  0  0  0
  -37.0434    4.2896  -43.6828 C   0  0  0  0  0  0  0  0  0  0  0  0
  -35.9455    3.3415  -43.9110 N   0  0  0  0  0  0  0  0  0  0  0  0
  -34.7264    4.0354  -44.3452 C   0  0  0  0  0  0  0  0  0  0  0  0
  -34.2682    5.0015  -43.2486 C   0  0  0  0  0  0  0  0  0  0  0  0
  -36.3356    2.3073  -44.8787 C   0  0  0  0  0  0  0  0  0  0  0  0
  -35.1913    1.3499  -45.2574 C   0  0  0  0  0  0  0  0  0  0  0  0
  -36.1971    0.2688  -45.1629 N   0  0  0  0  0  0  0  0  0  0  0  0
  -37.0151    1.0837  -44.2377 C   0  0  0  0  0  0  0  0  0  0  0  0
  -35.5522   -1.1003  -44.3670 X   0  0  0  0  0  0  0  0  0  0  0  0
  1  2  1  0  0  0  0
  2  3  1  0  0  0  0
  2  7  1  0  0  0  0
  3  4  1  0  0  0  0
  4  5  1  0  0  0  0
  5  6  1  0  0  0  0
  5  8  1  0  0  0  0
  6  7  1  0  0  0  0
  8  9  1  0  0  0  0
  8 11  1  0  0  0  0
  9 10  1  0  0  0  0
 10 11  1  0  0  0  0
 10 12  1  0  0  0  0
M  END
> <Index>
23701

> <PropertyFieldDistance>
nan

$$$$
11618766
BBcorina  12272117083D 1   1.00000     0.00000 
CORINA 4.3.0 0026  30.10.2019
 11 12  0  0  0  0  0  0  0  0999 V2000
  -35.0812    6.8673  -41.8187 N   0  0  0  0  0  0  0  0  0  0  0  0
  -35.4215    5.9586  -42.9217 C   0  0  0  0  0  0  0  0  0  0  0  0
  -36.6014    5.0741  -42.5094 C   0  0  0  0  0  0  0  0  0  0  0  0
  -37.1185    4.3012  -43.7279 C   0  0  0  0  0  0  0  0  0  0  0  0
  -35.9855    3.6414  -44.3808 N   0  0  0  0  0  0  0  0  0  0  0  0
  -36.0040    2.6297  -45.2655 C   0  0  0  0  0  0  0  0  0  0  0  0
  -34.7712    2.3420  -45.5946 N   0  0  0  0  0  0  0  0  0  0  0  0
  -33.9324    3.1587  -44.9339 C   0  0  0  0  0  0  0  0  0  0  0  0
  -34.6704    3.9750  -44.1729 C   0  0  0  0  0  0  0  0  0  0  0  0
  -34.2116    5.0719  -43.2467 C   0  0  0  0  0  0  0  0  0  0  0  0
  -34.4266    8.3318  -42.4111 X   0  0  0  0  0  0  0  0  0  0  0  0
  1  2  1  0  0  0  0
  1 11  1  0  0  0  0
  2  3  1  0  0  0  0
  2 10  1  0  0  0  0
  3  4  1  0  0  0  0
  4  5  1  0  0  0  0
  5  6  1  0  0  0  0
  5  9  1  0  0  0  0
  6  7  2  0  0  0  0
  7  8  1  0  0  0  0
  8  9  2  0  0  0  0
  9 10  1  0  0  0  0
M  END
> <Index>
23731

> <PropertyFieldDistance>
nan

$$$$
13149604
BBcorina  12272117083D 1   1.00000     0.00000 
CORINA 4.3.0 0026  30.10.2019
 11 11  0  0  0  0  0  0  0  0999 V2000
  -36.3098    2.2191  -44.9572 C   0  0  0  0  0  0  0  0  0  0  0  0
  -36.0453    3.4346  -44.1832 N   0  0  0  0  0  0  0  0  0  0  0  0
  -37.0873    4.3214  -43.6523 C   0  0  0  0  0  0  0  0  0  0  0  0
  -36.3858    5.1783  -42.5727 C   0  0  0  0  0  0  0  0  0  0  0  0
  -36.9382    6.6050  -42.5659 C   0  0  0  0  0  0  0  0  0  0  0  0
  -36.2007    7.4324  -41.5112 C   0  0  0  0  0  0  0  0  0  0  0  0
  -36.7311    8.8023  -41.5047 N   0  0  0  0  0  0  0  0  0  0  0  0
  -34.9182    5.1553  -43.0595 C   0  0  0  0  0  0  0  0  0  0  0  0
  -34.8170    3.8839  -43.8730 C   0  0  0  0  0  0  0  0  0  0  0  0
  -33.7787    3.3478  -44.1976 O   0  0  0  0  0  0  0  0  0  0  0  0
  -35.9326    9.7631  -40.3371 X   0  0  0  0  0  0  0  0  0  0  0  0
  1  2  1  0  0  0  0
  2  3  1  0  0  0  0
  2  9  1  0  0  0  0
  3  4  1  0  0  0  0
  4  5  1  0  0  0  0
  4  8  1  0  0  0  0
  5  6  1  0  0  0  0
  6  7  1  0  0  0  0
  7 11  1  0  0  0  0
  8  9  1  0  0  0  0
  9 10  2  0  0  0  0
M  END
> <Index>
23734

> <PropertyFieldDistance>
nan

$$$$
16946190
BBcorina  12272117083D 1   1.00000     0.00000 
CORINA 4.3.0 0026  30.10.2019
 14 15  0  0  0  0  0  0  0  0999 V2000
  -36.0133    3.7545  -44.4506 N   0  0  0  0  0  0  0  0  0  0  0  0
  -36.9947    4.5935  -43.7501 C   0  0  0  0  0  0  0  0  0  0  0  0
  -36.6223    4.6787  -42.2661 C   0  0  0  0  0  0  0  0  0  0  0  0
  -35.2275    5.1326  -42.1597 N   0  0  0  0  0  0  0  0  0  0  0  0
  -34.2045    4.4285  -42.9476 C   0  0  0  0  0  0  0  0  0  0  0  0
  -34.6711    4.3495  -44.4003 C   0  0  0  0  0  0  0  0  0  0  0  0
  -34.8827    6.2126  -41.3328 C   0  0  0  0  0  0  0  0  0  0  0  0
  -33.5311    6.5484  -41.1389 C   0  0  0  0  0  0  0  0  0  0  0  0
  -33.2152    7.6010  -40.3314 C   0  0  0  0  0  0  0  0  0  0  0  0
  -34.2449    8.3273  -39.7105 C   0  0  0  0  0  0  0  0  0  0  0  0
  -33.9727    9.2718  -38.9859 O   0  0  0  0  0  0  0  0  0  0  0  0
  -35.5314    7.9885  -39.9173 N   0  0  0  0  0  0  0  0  0  0  0  0
  -35.8540    6.9362  -40.7170 C   0  0  0  0  0  0  0  0  0  0  0  0
  -36.4955    3.4658  -46.0656 X   0  0  0  0  0  0  0  0  0  0  0  0
  1  2  1  0  0  0  0
  1  6  1  0  0  0  0
  1 14  1  0  0  0  0
  2  3  1  0  0  0  0
  3  4  1  0  0  0  0
  4  5  1  0  0  0  0
  4  7  1  0  0  0  0
  5  6  1  0  0  0  0
  7  8  1  0  0  0  0
  7 13  2  0  0  0  0
  8  9  2  0  0  0  0
  9 10  1  0  0  0  0
 10 11  2  0  0  0  0
 10 12  1  0  0  0  0
 12 13  1  0  0  0  0
M  END
> <Index>
23740

> <PropertyFieldDistance>
nan

$$$$
16970388
BBcorina  12272117083D 1   1.00000     0.00000 
CORINA 4.3.0 0026  30.10.2019
 12 13  0  0  0  0  0  0  0  0999 V2000
  -37.8699    4.9972  -43.8624 O   0  0  0  0  0  0  0  0  0  0  0  0
  -37.3899    3.6628  -44.0383 C   0  0  0  0  0  0  0  0  0  0  0  0
  -36.6160    3.2307  -42.7911 C   0  0  0  0  0  0  0  0  0  0  0  0
  -36.1153    1.7971  -42.9775 C   0  0  0  0  0  0  0  0  0  0  0  0
  -35.1069    1.7652  -44.1393 C   0  0  0  0  0  0  0  0  0  0  0  0
  -35.7112    2.5897  -45.2994 C   0  0  0  0  0  0  0  0  0  0  0  0
  -35.2958    4.0509  -45.0508 C   0  0  0  0  0  0  0  0  0  0  0  0
  -34.4585    4.0470  -43.7510 C   0  0  0  0  0  0  0  0  0  0  0  0
  -35.4377    4.1815  -42.5717 C   0  0  0  0  0  0  0  0  0  0  0  0
  -33.8834    2.6072  -43.6905 C   0  0  0  0  0  0  0  0  0  0  0  0
  -33.4779    2.2591  -42.3222 N   0  0  0  0  0  0  0  0  0  0  0  0
  -32.4577    0.8868  -42.3158 X   0  0  0  0  0  0  0  0  0  0  0  0
  1  2  1  0  0  0  0
  2  3  1  0  0  0  0
  3  4  1  0  0  0  0
  3  9  1  0  0  0  0
  4  5  1  0  0  0  0
  5  6  1  0  0  0  0
  5 10  1  0  0  0  0
  6  7  1  0  0  0  0
  7  8  1  0  0  0  0
  8  9  1  0  0  0  0
  8 10  1  0  0  0  0
 10 11  1  0  0  0  0
 11 12  1  0  0  0  0
M  END
> <Index>
23748

> <PropertyFieldDistance>
nan

$$$$
16970394
BBcorina  12272117083D 1   1.00000     0.00000 
CORINA 4.3.0 0026  30.10.2019
  9  9  0  0  0  0  0  0  0  0999 V2000
  -38.3029    4.0883  -43.9846 O   0  0  0  0  0  0  0  0  0  0  0  0
  -36.9723    4.0086  -43.4695 C   0  0  0  0  0  0  0  0  0  0  0  0
  -36.6793    5.2476  -42.6202 C   0  0  0  0  0  0  0  0  0  0  0  0
  -37.5748    5.3004  -41.5466 F   0  0  0  0  0  0  0  0  0  0  0  0
  -35.2462    5.1676  -42.0869 C   0  0  0  0  0  0  0  0  0  0  0  0
  -34.2769    5.0496  -43.2665 C   0  0  0  0  0  0  0  0  0  0  0  0
  -34.6396    3.8164  -44.0970 C   0  0  0  0  0  0  0  0  0  0  0  0
  -36.0191    3.9414  -44.5845 N   0  0  0  0  0  0  0  0  0  0  0  0
  -36.4111    2.6622  -45.6494 X   0  0  0  0  0  0  0  0  0  0  0  0
  1  2  1  0  0  0  0
  2  3  1  0  0  0  0
  2  8  1  0  0  0  0
  3  4  1  0  0  0  0
  3  5  1  0  0  0  0
  5  6  1  0  0  0  0
  6  7  1  0  0  0  0
  7  8  1  0  0  0  0
  8  9  1  0  0  0  0
M  END
> <Index>
23749

> <PropertyFieldDistance>
nan

$$$$
16951062
BBcorina  12272117083D 1   1.00000     0.00000 
CORINA 4.3.0 0026  30.10.2019
  9 10  0  0  0  0  0  0  0  0999 V2000
  -36.0000    3.7166  -44.2232 N   0  0  0  0  0  0  0  0  0  0  0  0
  -37.1880    4.5286  -43.8692 C   0  0  0  0  0  0  0  0  0  0  0  0
  -36.4757    4.7966  -42.5311 C   0  0  0  0  0  0  0  0  0  0  0  0
  -35.7014    3.4919  -42.7915 C   0  0  0  0  0  0  0  0  0  0  0  0
  -34.2129    3.5795  -42.4486 C   0  0  0  0  0  0  0  0  0  0  0  0
  -33.5673    2.2035  -42.6244 C   0  0  0  0  0  0  0  0  0  0  0  0
  -32.0513    2.1062  -42.4420 C   0  0  0  0  0  0  0  0  0  0  0  0
  -32.9883    1.5305  -41.3783 C   0  0  0  0  0  0  0  0  0  0  0  0
  -36.4583    2.2585  -44.9898 X   0  0  0  0  0  0  0  0  0  0  0  0
  1  2  1  0  0  0  0
  1  4  1  0  0  0  0
  1  9  1  0  0  0  0
  2  3  1  0  0  0  0
  3  4  1  0  0  0  0
  4  5  1  0  0  0  0
  5  6  1  0  0  0  0
  6  7  1  0  0  0  0
  6  8  1  0  0  0  0
  7  8  1  0  0  0  0
M  END
> <Index>
23754

> <PropertyFieldDistance>
nan

$$$$
17603448
BBcorina  12272117083D 1   1.00000     0.00000 
CORINA 4.3.0 0026  30.10.2019
 11 11  0  0  0  0  0  0  0  0999 V2000
  -38.7967    6.0213  -41.8060 C   0  0  0  0  0  0  0  0  0  0  0  0
  -37.5946    5.3021  -41.5241 O   0  0  0  0  0  0  0  0  0  0  0  0
  -36.6793    5.2476  -42.6202 C   0  0  0  0  0  0  0  0  0  0  0  0
  -36.9723    4.0087  -43.4694 C   0  0  0  0  0  0  0  0  0  0  0  0
  -36.0191    3.9414  -44.5845 N   0  0  0  0  0  0  0  0  0  0  0  0
  -34.6396    3.8164  -44.0970 C   0  0  0  0  0  0  0  0  0  0  0  0
  -34.2770    5.0496  -43.2665 C   0  0  0  0  0  0  0  0  0  0  0  0
  -32.9695    4.9209  -42.7856 F   0  0  0  0  0  0  0  0  0  0  0  0
  -34.3712    6.1946  -44.0648 F   0  0  0  0  0  0  0  0  0  0  0  0
  -35.2462    5.1676  -42.0870 C   0  0  0  0  0  0  0  0  0  0  0  0
  -36.4110    2.6621  -45.6494 X   0  0  0  0  0  0  0  0  0  0  0  0
  1  2  1  0  0  0  0
  2  3  1  0  0  0  0
  3  4  1  0  0  0  0
  3 10  1  0  0  0  0
  4  5  1  0  0  0  0
  5  6  1  0  0  0  0
  5 11  1  0  0  0  0
  6  7  1  0  0  0  0
  7  8  1  0  0  0  0
  7  9  1  0  0  0  0
  7 10  1  0  0  0  0
M  END
> <Index>
23767

> <PropertyFieldDistance>
nan

$$$$
17606894
BBcorina  12272117083D 1   1.00000     0.00000 
CORINA 4.3.0 0026  30.10.2019
  9 10  0  0  0  0  0  0  0  0999 V2000
  -33.8754    2.5148  -41.1827 C   0  0  0  0  0  0  0  0  0  0  0  0
  -34.6804    3.6952  -41.2058 O   0  0  0  0  0  0  0  0  0  0  0  0
  -35.4816    3.8294  -42.3815 C   0  0  0  0  0  0  0  0  0  0  0  0
  -36.4176    5.0514  -42.5752 C   0  0  0  0  0  0  0  0  0  0  0  0
  -37.0675    4.1156  -43.6244 C   0  0  0  0  0  0  0  0  0  0  0  0
  -36.8369    3.0659  -42.4977 C   0  0  0  0  0  0  0  0  0  0  0  0
  -34.7776    3.7391  -43.7789 C   0  0  0  0  0  0  0  0  0  0  0  0
  -35.9950    3.9571  -44.6645 N   0  0  0  0  0  0  0  0  0  0  0  0
  -36.2932    2.5913  -45.6492 X   0  0  0  0  0  0  0  0  0  0  0  0
  1  2  1  0  0  0  0
  2  3  1  0  0  0  0
  3  4  1  0  0  0  0
  3  6  1  0  0  0  0
  3  7  1  0  0  0  0
  4  5  1  0  0  0  0
  5  6  1  0  0  0  0
  5  8  1  0  0  0  0
  7  8  1  0  0  0  0
  8  9  1  0  0  0  0
M  END
> <Index>
23771

> <PropertyFieldDistance>
nan

$$$$
16513906
BBcorina  12272117083D 1   1.00000     0.00000 
CORINA 4.3.0 0026  30.10.2019
  9 10  0  0  0  0  0  0  0  0999 V2000
  -35.9598    3.4596  -44.1914 N   0  0  0  0  0  0  0  0  0  0  0  0
  -37.0042    4.4194  -43.8073 C   0  0  0  0  0  0  0  0  0  0  0  0
  -36.6199    5.0981  -42.4906 C   0  0  0  0  0  0  0  0  0  0  0  0
  -35.3759    5.7874  -42.6593 O   0  0  0  0  0  0  0  0  0  0  0  0
  -34.3283    4.9406  -43.1428 C   0  0  0  0  0  0  0  0  0  0  0  0
  -33.4169    4.2764  -42.1121 C   0  0  0  0  0  0  0  0  0  0  0  0
  -32.8871    5.4224  -42.9772 C   0  0  0  0  0  0  0  0  0  0  0  0
  -34.6751    4.1459  -44.4056 C   0  0  0  0  0  0  0  0  0  0  0  0
  -36.4212    2.5752  -45.5803 X   0  0  0  0  0  0  0  0  0  0  0  0
  1  2  1  0  0  0  0
  1  8  1  0  0  0  0
  1  9  1  0  0  0  0
  2  3  1  0  0  0  0
  3  4  1  0  0  0  0
  4  5  1  0  0  0  0
  5  6  1  0  0  0  0
  5  7  1  0  0  0  0
  5  8  1  0  0  0  0
  6  7  1  0  0  0  0
M  END
> <Index>
23779

> <PropertyFieldDistance>
nan

$$$$
12339184
BBcorina  12272117083D 1   1.00000     0.00000 
CORINA 4.3.0 0026  30.10.2019
 11 11  0  0  0  0  0  0  0  0999 V2000
  -38.0231    6.8609  -39.5452 N   0  0  0  0  0  0  0  0  0  0  0  0
  -37.3101    6.5878  -40.6559 C   0  0  0  0  0  0  0  0  0  0  0  0
  -36.4629    7.3664  -41.0395 O   0  0  0  0  0  0  0  0  0  0  0  0
  -37.5654    5.3150  -41.4213 C   0  0  0  0  0  0  0  0  0  0  0  0
  -36.6296    5.2502  -42.6299 C   0  0  0  0  0  0  0  0  0  0  0  0
  -36.9723    4.0214  -43.4764 C   0  0  0  0  0  0  0  0  0  0  0  0
  -36.0214    3.9202  -44.5931 N   0  0  0  0  0  0  0  0  0  0  0  0
  -34.6419    3.8203  -44.0951 C   0  0  0  0  0  0  0  0  0  0  0  0
  -34.3221    5.0515  -43.2432 C   0  0  0  0  0  0  0  0  0  0  0  0
  -35.2751    5.1511  -42.1815 O   0  0  0  0  0  0  0  0  0  0  0  0
  -36.4046    2.5971  -45.6063 X   0  0  0  0  0  0  0  0  0  0  0  0
  1  2  1  0  0  0  0
  2  3  2  0  0  0  0
  2  4  1  0  0  0  0
  4  5  1  0  0  0  0
  5  6  1  0  0  0  0
  5 10  1  0  0  0  0
  6  7  1  0  0  0  0
  7  8  1  0  0  0  0
  7 11  1  0  0  0  0
  8  9  1  0  0  0  0
  9 10  1  0  0  0  0
M  END
> <Index>
23781

> <PropertyFieldDistance>
nan

$$$$
17664944
BBcorina  12272117083D 1   1.00000     0.00000 
CORINA 4.3.0 0026  30.10.2019
 10 10  0  0  0  0  0  0  0  0999 V2000
  -36.0637    3.5298  -44.4137 N   0  0  0  0  0  0  0  0  0  0  0  0
  -36.9946    4.5502  -43.8667 C   0  0  0  0  0  0  0  0  0  0  0  0
  -36.4718    4.8295  -42.4412 C   0  0  0  0  0  0  0  0  0  0  0  0
  -34.9803    4.4371  -42.4773 C   0  0  0  0  0  0  0  0  0  0  0  0
  -34.7276    3.9536  -43.9215 C   0  0  0  0  0  0  0  0  0  0  0  0
  -33.7574    2.7706  -43.9261 C   0  0  0  0  0  0  0  0  0  0  0  0
  -33.4908    2.3353  -45.3684 C   0  0  0  0  0  0  0  0  0  0  0  0
  -32.5573    1.1970  -45.3728 C   0  0  0  0  0  0  0  0  0  0  0  0
  -31.8129    0.2893  -45.3764 C   0  0  0  0  0  0  0  0  0  0  0  0
  -36.1098    3.5118  -46.1229 X   0  0  0  0  0  0  0  0  0  0  0  0
  1  2  1  0  0  0  0
  1  5  1  0  0  0  0
  1 10  1  0  0  0  0
  2  3  1  0  0  0  0
  3  4  1  0  0  0  0
  4  5  1  0  0  0  0
  5  6  1  0  0  0  0
  6  7  1  0  0  0  0
  7  8  1  0  0  0  0
  8  9  3  0  0  0  0
M  END
> <Index>
23793

> <PropertyFieldDistance>
nan

$$$$
17649514
BBcorina  12272117083D 1   1.00000     0.00000 
CORINA 4.3.0 0026  30.10.2019
 13 14  0  0  0  0  0  0  0  0999 V2000
  -36.0191    3.9414  -44.5845 N   0  0  0  0  0  0  0  0  0  0  0  0
  -36.9723    4.0087  -43.4695 C   0  0  0  0  0  0  0  0  0  0  0  0
  -36.6793    5.2476  -42.6202 C   0  0  0  0  0  0  0  0  0  0  0  0
  -35.2462    5.1676  -42.0870 C   0  0  0  0  0  0  0  0  0  0  0  0
  -34.2770    5.0496  -43.2665 C   0  0  0  0  0  0  0  0  0  0  0  0
  -34.6396    3.8164  -44.0970 C   0  0  0  0  0  0  0  0  0  0  0  0
  -34.9317    6.4133  -41.2995 C   0  0  0  0  0  0  0  0  0  0  0  0
  -35.7703    7.2806  -41.1759 O   0  0  0  0  0  0  0  0  0  0  0  0
  -33.7183    6.5636  -40.7323 N   0  0  0  0  0  0  0  0  0  0  0  0
  -33.0495    7.5901  -39.9187 C   0  0  0  0  0  0  0  0  0  0  0  0
  -31.7130    7.0914  -40.4857 C   0  0  0  0  0  0  0  0  0  0  0  0
  -32.4808    5.7729  -40.6539 C   0  0  0  0  0  0  0  0  0  0  0  0
  -36.4110    2.6621  -45.6494 X   0  0  0  0  0  0  0  0  0  0  0  0
  1  2  1  0  0  0  0
  1  6  1  0  0  0  0
  1 13  1  0  0  0  0
  2  3  1  0  0  0  0
  3  4  1  0  0  0  0
  4  5  1  0  0  0  0
  4  7  1  0  0  0  0
  5  6  1  0  0  0  0
  7  8  2  0  0  0  0
  7  9  1  0  0  0  0
  9 10  1  0  0  0  0
  9 12  1  0  0  0  0
 10 11  1  0  0  0  0
 11 12  1  0  0  0  0
M  END
> <Index>
23794

> <PropertyFieldDistance>
nan

$$$$
17649978
BBcorina  12272117083D 1   1.00000     0.00000 
CORINA 4.3.0 0026  30.10.2019
 13 13  0  0  0  0  0  0  0  0999 V2000
  -33.7970    7.3788  -41.6213 O   0  0  0  0  0  0  0  0  0  0  0  0
  -34.9466    6.5601  -41.3976 C   0  0  0  0  0  0  0  0  0  0  0  0
  -35.3534    5.8832  -42.7079 C   0  0  0  0  0  0  0  0  0  0  0  0
  -35.5546    6.9450  -43.7910 C   0  0  0  0  0  0  0  0  0  0  0  0
  -36.5528    7.9941  -43.2975 C   0  0  0  0  0  0  0  0  0  0  0  0
  -36.6324    9.0361  -44.2276 F   0  0  0  0  0  0  0  0  0  0  0  0
  -37.8130    7.4050  -43.1482 F   0  0  0  0  0  0  0  0  0  0  0  0
  -36.6587    5.1099  -42.5007 C   0  0  0  0  0  0  0  0  0  0  0  0
  -37.0290    4.3869  -43.7977 C   0  0  0  0  0  0  0  0  0  0  0  0
  -35.9480    3.4664  -44.1723 N   0  0  0  0  0  0  0  0  0  0  0  0
  -34.6959    4.1916  -44.4226 C   0  0  0  0  0  0  0  0  0  0  0  0
  -34.2558    4.9088  -43.1443 C   0  0  0  0  0  0  0  0  0  0  0  0
  -36.3899    2.5210  -45.5270 X   0  0  0  0  0  0  0  0  0  0  0  0
  1  2  1  0  0  0  0
  2  3  1  0  0  0  0
  3  4  1  0  0  0  0
  3  8  1  0  0  0  0
  3 12  1  0  0  0  0
  4  5  1  0  0  0  0
  5  6  1  0  0  0  0
  5  7  1  0  0  0  0
  8  9  1  0  0  0  0
  9 10  1  0  0  0  0
 10 11  1  0  0  0  0
 10 13  1  0  0  0  0
 11 12  1  0  0  0  0
M  END
> <Index>
23799

> <PropertyFieldDistance>
nan

$$$$
17665040
BBcorina  12272117083D 1   1.00000     0.00000 
CORINA 4.3.0 0026  30.10.2019
 13 14  0  0  0  0  0  0  0  0999 V2000
  -36.2501    2.2628  -44.7880 C   0  0  0  0  0  0  0  0  0  0  0  0
  -36.0844    3.6712  -44.4049 N   0  0  0  0  0  0  0  0  0  0  0  0
  -36.9324    4.0069  -43.2551 C   0  0  0  0  0  0  0  0  0  0  0  0
  -36.6261    5.4474  -42.8254 C   0  0  0  0  0  0  0  0  0  0  0  0
  -35.2618    5.4985  -42.3957 O   0  0  0  0  0  0  0  0  0  0  0  0
  -34.3465    4.8764  -43.1888 C   0  0  0  0  0  0  0  0  0  0  0  0
  -33.0010    5.1546  -42.9977 C   0  0  0  0  0  0  0  0  0  0  0  0
  -32.0416    4.5298  -43.7819 C   0  0  0  0  0  0  0  0  0  0  0  0
  -30.6843    4.8114  -43.5869 N   0  0  0  0  0  0  0  0  0  0  0  0
  -32.4305    3.6247  -44.7598 C   0  0  0  0  0  0  0  0  0  0  0  0
  -33.7699    3.3524  -44.9562 C   0  0  0  0  0  0  0  0  0  0  0  0
  -34.7353    3.9729  -44.1709 C   0  0  0  0  0  0  0  0  0  0  0  0
  -29.5036    4.0402  -44.5537 X   0  0  0  0  0  0  0  0  0  0  0  0
  1  2  1  0  0  0  0
  2  3  1  0  0  0  0
  2 12  1  0  0  0  0
  3  4  1  0  0  0  0
  4  5  1  0  0  0  0
  5  6  1  0  0  0  0
  6  7  2  0  0  0  0
  6 12  1  0  0  0  0
  7  8  1  0  0  0  0
  8  9  1  0  0  0  0
  8 10  2  0  0  0  0
  9 13  1  0  0  0  0
 10 11  1  0  0  0  0
 11 12  2  0  0  0  0
M  END
> <Index>
23800

> <PropertyFieldDistance>
nan

$$$$
12346244
BBcorina  12272117083D 1   1.00000     0.00000 
CORINA 4.3.0 0026  30.10.2019
 11 11  0  0  0  0  0  0  0  0999 V2000
  -30.7270    6.7626  -42.8049 C   0  0  0  0  0  0  0  0  0  0  0  0
  -30.8973    5.7734  -43.9290 C   0  0  0  0  0  0  0  0  0  0  0  0
  -31.8833    4.9113  -43.8990 C   0  0  0  0  0  0  0  0  0  0  0  0
  -32.8471    4.9089  -42.7405 C   0  0  0  0  0  0  0  0  0  0  0  0
  -34.2769    5.0496  -43.2665 C   0  0  0  0  0  0  0  0  0  0  0  0
  -35.2462    5.1676  -42.0870 C   0  0  0  0  0  0  0  0  0  0  0  0
  -36.6793    5.2476  -42.6202 C   0  0  0  0  0  0  0  0  0  0  0  0
  -36.9723    4.0086  -43.4695 C   0  0  0  0  0  0  0  0  0  0  0  0
  -36.0191    3.9414  -44.5846 N   0  0  0  0  0  0  0  0  0  0  0  0
  -34.6396    3.8164  -44.0970 C   0  0  0  0  0  0  0  0  0  0  0  0
  -36.4110    2.6621  -45.6493 X   0  0  0  0  0  0  0  0  0  0  0  0
  1  2  1  0  0  0  0
  2  3  2  0  0  0  0
  3  4  1  0  0  0  0
  4  5  1  0  0  0  0
  5  6  1  0  0  0  0
  5 10  1  0  0  0  0
  6  7  1  0  0  0  0
  7  8  1  0  0  0  0
  8  9  1  0  0  0  0
  9 10  1  0  0  0  0
  9 11  1  0  0  0  0
M  END
> <Index>
23811

> <PropertyFieldDistance>
nan

$$$$
11973204
BBcorina  12272117083D 1   1.00000     0.00000 
CORINA 4.3.0 0026  30.10.2019
 10 10  0  0  0  0  0  0  0  0999 V2000
  -35.9480    3.4664  -44.1724 N   0  0  0  0  0  0  0  0  0  0  0  0
  -37.0290    4.3869  -43.7977 C   0  0  0  0  0  0  0  0  0  0  0  0
  -36.6587    5.1099  -42.5007 C   0  0  0  0  0  0  0  0  0  0  0  0
  -35.3534    5.8832  -42.7079 C   0  0  0  0  0  0  0  0  0  0  0  0
  -34.2559    4.9088  -43.1443 C   0  0  0  0  0  0  0  0  0  0  0  0
  -32.9630    5.6821  -43.4115 C   0  0  0  0  0  0  0  0  0  0  0  0
  -31.8780    4.7343  -43.7142 C   0  0  0  0  0  0  0  0  0  0  0  0
  -31.0128    3.9785  -43.9556 C   0  0  0  0  0  0  0  0  0  0  0  0
  -34.6958    4.1916  -44.4226 C   0  0  0  0  0  0  0  0  0  0  0  0
  -36.3899    2.5211  -45.5270 X   0  0  0  0  0  0  0  0  0  0  0  0
  1  2  1  0  0  0  0
  1  9  1  0  0  0  0
  1 10  1  0  0  0  0
  2  3  1  0  0  0  0
  3  4  1  0  0  0  0
  4  5  1  0  0  0  0
  5  6  1  0  0  0  0
  5  9  1  0  0  0  0
  6  7  1  0  0  0  0
  7  8  3  0  0  0  0
M  END
> <Index>
23812

> <PropertyFieldDistance>
nan

$$$$
17659950
BBcorina  12272117083D 1   1.00000     0.00000 
CORINA 4.3.0 0026  30.10.2019
 15 15  0  0  0  0  0  0  0  0999 V2000
  -34.6546    6.3500  -40.5629 C   0  0  0  0  0  0  0  0  0  0  0  0
  -34.9742    6.9037  -41.8810 N   0  0  0  0  0  0  0  0  0  0  0  0
  -35.3832    6.0133  -42.9701 C   0  0  0  0  0  0  0  0  0  0  0  0
  -36.6553    5.2625  -42.5668 C   0  0  0  0  0  0  0  0  0  0  0  0
  -37.0441    4.2899  -43.6826 C   0  0  0  0  0  0  0  0  0  0  0  0
  -35.9452    3.3417  -43.9110 N   0  0  0  0  0  0  0  0  0  0  0  0
  -36.3352    2.3075  -44.8787 C   0  0  0  0  0  0  0  0  0  0  0  0
  -34.7260    4.0355  -44.3451 C   0  0  0  0  0  0  0  0  0  0  0  0
  -34.2689    5.0006  -43.2489 C   0  0  0  0  0  0  0  0  0  0  0  0
  -34.8921    8.2324  -42.0918 C   0  0  0  0  0  0  0  0  0  0  0  0
  -35.1567    8.6908  -43.1830 O   0  0  0  0  0  0  0  0  0  0  0  0
  -34.4714    9.1484  -40.9714 C   0  0  0  0  0  0  0  0  0  0  0  0
  -34.4599   10.5942  -41.4719 C   0  0  0  0  0  0  0  0  0  0  0  0
  -34.0498   11.4871  -40.3799 N   0  0  0  0  0  0  0  0  0  0  0  0
  -34.0237   13.1166  -40.8977 X   0  0  0  0  0  0  0  0  0  0  0  0
  1  2  1  0  0  0  0
  2  3  1  0  0  0  0
  2 10  1  0  0  0  0
  3  4  1  0  0  0  0
  3  9  1  0  0  0  0
  4  5  1  0  0  0  0
  5  6  1  0  0  0  0
  6  7  1  0  0  0  0
  6  8  1  0  0  0  0
  8  9  1  0  0  0  0
 10 11  2  0  0  0  0
 10 12  1  0  0  0  0
 12 13  1  0  0  0  0
 13 14  1  0  0  0  0
 14 15  1  0  0  0  0
M  END
> <Index>
23836

> <PropertyFieldDistance>
nan

$$$$
16906868
BBcorina  12272117083D 1   1.00000     0.00000 
CORINA 4.3.0 0026  30.10.2019
 10 11  0  0  0  0  0  0  0  0999 V2000
  -35.3710    6.0887  -42.9584 N   0  0  0  0  0  0  0  0  0  0  0  0
  -35.5448    4.9030  -43.8080 C   0  0  0  0  0  0  0  0  0  0  0  0
  -37.0178    4.4422  -43.7964 C   0  0  0  0  0  0  0  0  0  0  0  0
  -36.9969    2.9010  -43.8049 C   0  0  0  0  0  0  0  0  0  0  0  0
  -35.5205    2.4915  -43.8010 C   0  0  0  0  0  0  0  0  0  0  0  0
  -35.2022    1.1442  -43.1574 C   0  0  0  0  0  0  0  0  0  0  0  0
  -34.1434    0.9663  -44.2613 C   0  0  0  0  0  0  0  0  0  0  0  0
  -34.9774    1.9382  -45.1163 C   0  0  0  0  0  0  0  0  0  0  0  0
  -34.7606    3.6987  -43.2249 C   0  0  0  0  0  0  0  0  0  0  0  0
  -35.7468    5.7348  -41.3281 X   0  0  0  0  0  0  0  0  0  0  0  0
  1  2  1  0  0  0  0
  1 10  1  0  0  0  0
  2  3  1  0  0  0  0
  2  9  1  0  0  0  0
  3  4  1  0  0  0  0
  4  5  1  0  0  0  0
  5  6  1  0  0  0  0
  5  8  1  0  0  0  0
  5  9  1  0  0  0  0
  6  7  1  0  0  0  0
  7  8  1  0  0  0  0
M  END
> <Index>
23865

> <PropertyFieldDistance>
nan

$$$$
17541910
BBcorina  12272117083D 1   1.00000     0.00000 
CORINA 4.3.0 0026  30.10.2019
 12 13  0  0  0  0  0  0  0  0999 V2000
  -35.9984    2.2184  -46.4946 C   0  0  0  0  0  0  0  0  0  0  0  0
  -36.6428    3.0218  -45.3945 C   0  0  0  0  0  0  0  0  0  0  0  0
  -37.9265    3.1779  -45.1953 N   0  0  0  0  0  0  0  0  0  0  0  0
  -38.1191    3.9260  -44.1634 N   0  0  0  0  0  0  0  0  0  0  0  0
  -36.9743    4.2774  -43.6632 C   0  0  0  0  0  0  0  0  0  0  0  0
  -36.7000    5.1423  -42.4586 C   0  0  0  0  0  0  0  0  0  0  0  0
  -35.2369    4.9359  -42.0444 C   0  0  0  0  0  0  0  0  0  0  0  0
  -34.3384    5.0636  -43.2780 C   0  0  0  0  0  0  0  0  0  0  0  0
  -34.5686    3.8661  -44.2074 C   0  0  0  0  0  0  0  0  0  0  0  0
  -36.0060    3.7142  -44.4306 N   0  0  0  0  0  0  0  0  0  0  0  0
  -37.5877    4.7518  -41.3552 N   0  0  0  0  0  0  0  0  0  0  0  0
  -39.0413    5.6516  -41.3904 X   0  0  0  0  0  0  0  0  0  0  0  0
  1  2  1  0  0  0  0
  2  3  2  0  0  0  0
  2 10  1  0  0  0  0
  3  4  1  0  0  0  0
  4  5  2  0  0  0  0
  5  6  1  0  0  0  0
  5 10  1  0  0  0  0
  6  7  1  0  0  0  0
  6 11  1  0  0  0  0
  7  8  1  0  0  0  0
  8  9  1  0  0  0  0
  9 10  1  0  0  0  0
 11 12  1  0  0  0  0
M  END
> <Index>
23877

> <PropertyFieldDistance>
nan

$$$$
7593498
BBcorina  12272117083D 1   1.00000     0.00000 
CORINA 4.3.0 0026  30.10.2019
 13 13  0  0  0  0  0  0  0  0999 V2000
  -37.1188    0.5611  -46.2338 C   0  0  0  0  0  0  0  0  0  0  0  0
  -37.0873    1.9768  -45.6544 C   0  0  0  0  0  0  0  0  0  0  0  0
  -37.3342    2.9912  -46.7729 C   0  0  0  0  0  0  0  0  0  0  0  0
  -35.7192    2.2385  -45.0213 C   0  0  0  0  0  0  0  0  0  0  0  0
  -35.7060    3.5790  -44.4207 N   0  0  0  0  0  0  0  0  0  0  0  0
  -36.8501    3.7628  -43.5187 C   0  0  0  0  0  0  0  0  0  0  0  0
  -36.8857    5.2113  -43.0264 C   0  0  0  0  0  0  0  0  0  0  0  0
  -35.5788    5.5288  -42.2944 C   0  0  0  0  0  0  0  0  0  0  0  0
  -34.4003    5.2829  -43.2406 C   0  0  0  0  0  0  0  0  0  0  0  0
  -33.0872    5.5401  -42.4987 C   0  0  0  0  0  0  0  0  0  0  0  0
  -32.9995    6.9612  -42.1369 N   0  0  0  0  0  0  0  0  0  0  0  0
  -34.4368    3.8323  -43.7268 C   0  0  0  0  0  0  0  0  0  0  0  0
  -31.5434    7.2927  -41.3039 X   0  0  0  0  0  0  0  0  0  0  0  0
  1  2  1  0  0  0  0
  2  3  1  0  0  0  0
  2  4  1  0  0  0  0
  4  5  1  0  0  0  0
  5  6  1  0  0  0  0
  5 12  1  0  0  0  0
  6  7  1  0  0  0  0
  7  8  1  0  0  0  0
  8  9  1  0  0  0  0
  9 10  1  0  0  0  0
  9 12  1  0  0  0  0
 10 11  1  0  0  0  0
 11 13  1  0  0  0  0
M  END
> <Index>
23884

> <PropertyFieldDistance>
nan

$$$$
12130606
BBcorina  12272117083D 1   1.00000     0.00000 
CORINA 4.3.0 0026  30.10.2019
 13 14  0  0  0  0  0  0  0  0999 V2000
  -32.6516    6.7986  -42.9419 N   0  0  0  0  0  0  0  0  0  0  0  0
  -33.0526    5.7403  -43.8786 C   0  0  0  0  0  0  0  0  0  0  0  0
  -34.3085    5.0427  -43.3526 C   0  0  0  0  0  0  0  0  0  0  0  0
  -35.4756    6.0337  -43.3380 C   0  0  0  0  0  0  0  0  0  0  0  0
  -36.7417    5.3123  -42.8676 C   0  0  0  0  0  0  0  0  0  0  0  0
  -37.0206    4.1259  -43.7931 C   0  0  0  0  0  0  0  0  0  0  0  0
  -35.8754    3.2069  -43.7716 N   0  0  0  0  0  0  0  0  0  0  0  0
  -36.1636    1.9885  -44.5399 C   0  0  0  0  0  0  0  0  0  0  0  0
  -36.3176    2.3435  -46.0202 C   0  0  0  0  0  0  0  0  0  0  0  0
  -36.5060    1.1900  -47.0074 C   0  0  0  0  0  0  0  0  0  0  0  0
  -37.6841    2.1045  -46.6656 C   0  0  0  0  0  0  0  0  0  0  0  0
  -34.6580    3.8640  -44.2640 C   0  0  0  0  0  0  0  0  0  0  0  0
  -31.2483    7.6055  -43.4932 X   0  0  0  0  0  0  0  0  0  0  0  0
  1  2  1  0  0  0  0
  1 13  1  0  0  0  0
  2  3  1  0  0  0  0
  3  4  1  0  0  0  0
  3 12  1  0  0  0  0
  4  5  1  0  0  0  0
  5  6  1  0  0  0  0
  6  7  1  0  0  0  0
  7  8  1  0  0  0  0
  7 12  1  0  0  0  0
  8  9  1  0  0  0  0
  9 10  1  0  0  0  0
  9 11  1  0  0  0  0
 10 11  1  0  0  0  0
M  END
> <Index>
23885

> <PropertyFieldDistance>
nan

$$$$
6727338
BBcorina  12272117083D 1   1.00000     0.00000 
CORINA 4.3.0 0026  30.10.2019
 14 14  0  0  0  0  0  0  0  0999 V2000
  -35.7006   -0.5176  -45.5559 C   0  0  0  0  0  0  0  0  0  0  0  0
  -36.2011    0.5314  -46.5509 C   0  0  0  0  0  0  0  0  0  0  0  0
  -35.5800    0.2689  -47.9243 C   0  0  0  0  0  0  0  0  0  0  0  0
  -35.7986    1.9261  -46.0674 C   0  0  0  0  0  0  0  0  0  0  0  0
  -36.5188    2.2380  -44.7540 C   0  0  0  0  0  0  0  0  0  0  0  0
  -36.1324    3.5769  -44.2896 N   0  0  0  0  0  0  0  0  0  0  0  0
  -36.9749    4.0081  -43.1668 C   0  0  0  0  0  0  0  0  0  0  0  0
  -36.6429    5.4576  -42.8054 C   0  0  0  0  0  0  0  0  0  0  0  0
  -35.1631    5.5578  -42.4253 C   0  0  0  0  0  0  0  0  0  0  0  0
  -34.8110    7.0151  -42.1202 C   0  0  0  0  0  0  0  0  0  0  0  0
  -33.4247    7.0939  -41.6407 N   0  0  0  0  0  0  0  0  0  0  0  0
  -34.3091    5.0575  -43.5936 C   0  0  0  0  0  0  0  0  0  0  0  0
  -34.7087    3.6196  -43.9322 C   0  0  0  0  0  0  0  0  0  0  0  0
  -32.9894    8.7093  -41.2872 X   0  0  0  0  0  0  0  0  0  0  0  0
  1  2  1  0  0  0  0
  2  3  1  0  0  0  0
  2  4  1  0  0  0  0
  4  5  1  0  0  0  0
  5  6  1  0  0  0  0
  6  7  1  0  0  0  0
  6 13  1  0  0  0  0
  7  8  1  0  0  0  0
  8  9  1  0  0  0  0
  9 10  1  0  0  0  0
  9 12  1  0  0  0  0
 10 11  1  0  0  0  0
 11 14  1  0  0  0  0
 12 13  1  0  0  0  0
M  END
> <Index>
23886

> <PropertyFieldDistance>
nan

$$$$
16915424
BBcorina  12272117083D 1   1.00000     0.00000 
CORINA 4.3.0 0026  30.10.2019
 13 13  0  0  0  0  0  0  0  0999 V2000
  -35.3662    0.4297  -47.8222 O   0  0  0  0  0  0  0  0  0  0  0  0
  -36.1373    0.6818  -46.6459 C   0  0  0  0  0  0  0  0  0  0  0  0
  -35.7651    2.0520  -46.0759 C   0  0  0  0  0  0  0  0  0  0  0  0
  -36.1440    3.0721  -47.0021 O   0  0  0  0  0  0  0  0  0  0  0  0
  -36.4976    2.2691  -44.7503 C   0  0  0  0  0  0  0  0  0  0  0  0
  -36.1226    3.5749  -44.1917 N   0  0  0  0  0  0  0  0  0  0  0  0
  -37.0296    3.9771  -43.2029 C   0  0  0  0  0  0  0  0  0  0  0  0
  -36.7667    5.4310  -42.7507 C   0  0  0  0  0  0  0  0  0  0  0  0
  -35.5575    5.4528  -41.8508 C   0  0  0  0  0  0  0  0  0  0  0  0
  -34.2976    5.7152  -42.5832 N   0  0  0  0  0  0  0  0  0  0  0  0
  -34.1959    4.9970  -43.8703 C   0  0  0  0  0  0  0  0  0  0  0  0
  -34.7081    3.5826  -43.7673 C   0  0  0  0  0  0  0  0  0  0  0  0
  -34.0514    7.3939  -42.7970 X   0  0  0  0  0  0  0  0  0  0  0  0
  1  2  1  0  0  0  0
  2  3  1  0  0  0  0
  3  4  1  0  0  0  0
  3  5  1  0  0  0  0
  5  6  1  0  0  0  0
  6  7  1  0  0  0  0
  6 12  1  0  0  0  0
  7  8  1  0  0  0  0
  8  9  1  0  0  0  0
  9 10  1  0  0  0  0
 10 11  1  0  0  0  0
 10 13  1  0  0  0  0
 11 12  1  0  0  0  0
M  END
> <Index>
23893

> <PropertyFieldDistance>
nan

$$$$
16922046
BBcorina  12272117083D 1   1.00000     0.00000 
CORINA 4.3.0 0026  30.10.2019
  9  9  0  0  0  0  0  0  0  0999 V2000
  -33.1790    4.1754  -43.9036 C   0  0  0  0  0  0  0  0  0  0  0  0
  -34.5228    3.4940  -43.9308 C   0  0  0  0  0  0  0  0  0  0  0  0
  -35.5631    4.1903  -43.6013 C   0  0  0  0  0  0  0  0  0  0  0  0
  -36.9648    3.6543  -43.5908 C   0  0  0  0  0  0  0  0  0  0  0  0
  -36.9440    2.1242  -43.5992 C   0  0  0  0  0  0  0  0  0  0  0  0
  -36.0018    1.6579  -44.7162 C   0  0  0  0  0  0  0  0  0  0  0  0
  -34.5719    2.0507  -44.3386 C   0  0  0  0  0  0  0  0  0  0  0  0
  -37.6572    4.1253  -42.3838 N   0  0  0  0  0  0  0  0  0  0  0  0
  -36.8654    3.5782  -40.9703 X   0  0  0  0  0  0  0  0  0  0  0  0
  1  2  1  0  0  0  0
  2  3  2  0  0  0  0
  2  7  1  0  0  0  0
  3  4  1  0  0  0  0
  4  5  1  0  0  0  0
  4  8  1  0  0  0  0
  5  6  1  0  0  0  0
  6  7  1  0  0  0  0
  8  9  1  0  0  0  0
M  END
> <Index>
23904

> <PropertyFieldDistance>
nan

$$$$
17660232
BBcorina  12272117083D 1   1.00000     0.00000 
CORINA 4.3.0 0026  30.10.2019
 13 13  0  0  0  0  0  0  0  0999 V2000
  -33.6200    9.8993  -39.3114 C   0  0  0  0  0  0  0  0  0  0  0  0
  -34.2223    9.0982  -40.3299 O   0  0  0  0  0  0  0  0  0  0  0  0
  -35.3784    8.3790  -39.8963 C   0  0  0  0  0  0  0  0  0  0  0  0
  -35.9369    7.5604  -41.0619 C   0  0  0  0  0  0  0  0  0  0  0  0
  -34.9622    6.5319  -41.4494 N   0  0  0  0  0  0  0  0  0  0  0  0
  -34.7882    5.5414  -40.3785 C   0  0  0  0  0  0  0  0  0  0  0  0
  -35.3535    5.8833  -42.7079 C   0  0  0  0  0  0  0  0  0  0  0  0
  -36.6585    5.1099  -42.5008 C   0  0  0  0  0  0  0  0  0  0  0  0
  -37.0291    4.3869  -43.7977 C   0  0  0  0  0  0  0  0  0  0  0  0
  -35.9480    3.4664  -44.1723 N   0  0  0  0  0  0  0  0  0  0  0  0
  -34.6958    4.1916  -44.4226 C   0  0  0  0  0  0  0  0  0  0  0  0
  -34.2559    4.9088  -43.1442 C   0  0  0  0  0  0  0  0  0  0  0  0
  -36.3899    2.5211  -45.5270 X   0  0  0  0  0  0  0  0  0  0  0  0
  1  2  1  0  0  0  0
  2  3  1  0  0  0  0
  3  4  1  0  0  0  0
  4  5  1  0  0  0  0
  5  6  1  0  0  0  0
  5  7  1  0  0  0  0
  7  8  1  0  0  0  0
  7 12  1  0  0  0  0
  8  9  1  0  0  0  0
  9 10  1  0  0  0  0
 10 11  1  0  0  0  0
 10 13  1  0  0  0  0
 11 12  1  0  0  0  0
M  END
> <Index>
23923

> <PropertyFieldDistance>
nan

$$$$
17660326
BBcorina  12272117083D 1   1.00000     0.00000 
CORINA 4.3.0 0026  30.10.2019
 13 14  0  0  0  0  0  0  0  0999 V2000
  -36.8277    8.3778  -42.1861 C   0  0  0  0  0  0  0  0  0  0  0  0
  -35.7338    7.8603  -41.3605 N   0  0  0  0  0  0  0  0  0  0  0  0
  -35.1033    8.4995  -40.2784 N   0  0  0  0  0  0  0  0  0  0  0  0
  -34.2004    7.6913  -39.8396 N   0  0  0  0  0  0  0  0  0  0  0  0
  -34.1861    6.6112  -40.5336 N   0  0  0  0  0  0  0  0  0  0  0  0
  -35.1034    6.6578  -41.4791 C   0  0  0  0  0  0  0  0  0  0  0  0
  -35.3915    5.6102  -42.4747 C   0  0  0  0  0  0  0  0  0  0  0  0
  -36.6226    5.1523  -42.5721 C   0  0  0  0  0  0  0  0  0  0  0  0
  -37.0229    4.0815  -43.5459 C   0  0  0  0  0  0  0  0  0  0  0  0
  -36.0022    3.9383  -44.5916 N   0  0  0  0  0  0  0  0  0  0  0  0
  -34.6699    3.7798  -43.9857 C   0  0  0  0  0  0  0  0  0  0  0  0
  -34.2696    5.1117  -43.3425 C   0  0  0  0  0  0  0  0  0  0  0  0
  -36.3648    2.6260  -45.6264 X   0  0  0  0  0  0  0  0  0  0  0  0
  1  2  1  0  0  0  0
  2  3  1  0  0  0  0
  2  6  1  0  0  0  0
  3  4  2  0  0  0  0
  4  5  1  0  0  0  0
  5  6  2  0  0  0  0
  6  7  1  0  0  0  0
  7  8  2  0  0  0  0
  7 12  1  0  0  0  0
  8  9  1  0  0  0  0
  9 10  1  0  0  0  0
 10 11  1  0  0  0  0
 10 13  1  0  0  0  0
 11 12  1  0  0  0  0
M  END
> <Index>
23929

> <PropertyFieldDistance>
nan

$$$$
13976072
BBcorina  12272117083D 1   1.00000     0.00000 
CORINA 4.3.0 0026  30.10.2019
 14 15  0  0  0  0  0  0  0  0999 V2000
  -39.2116    4.0000  -42.5310 N   0  0  0  0  0  0  0  0  0  0  0  0
  -38.1289    3.2984  -43.2334 C   0  0  0  0  0  0  0  0  0  0  0  0
  -37.0979    4.3156  -43.7266 C   0  0  0  0  0  0  0  0  0  0  0  0
  -36.4031    4.9891  -42.5245 C   0  0  0  0  0  0  0  0  0  0  0  0
  -34.9333    5.1257  -43.0018 C   0  0  0  0  0  0  0  0  0  0  0  0
  -34.7523    3.8306  -43.8321 C   0  0  0  0  0  0  0  0  0  0  0  0
  -36.0518    3.6308  -44.5082 N   0  0  0  0  0  0  0  0  0  0  0  0
  -36.3401    2.2712  -44.6470 C   0  0  0  0  0  0  0  0  0  0  0  0
  -36.8308    1.7830  -45.8514 C   0  0  0  0  0  0  0  0  0  0  0  0
  -37.1144    0.4381  -45.9854 C   0  0  0  0  0  0  0  0  0  0  0  0
  -36.9102   -0.4224  -44.9222 C   0  0  0  0  0  0  0  0  0  0  0  0
  -36.4272    0.0611  -43.7201 C   0  0  0  0  0  0  0  0  0  0  0  0
  -36.1361    1.4040  -43.5811 C   0  0  0  0  0  0  0  0  0  0  0  0
  -40.3018    2.8901  -41.8212 X   0  0  0  0  0  0  0  0  0  0  0  0
  1  2  1  0  0  0  0
  1 14  1  0  0  0  0
  2  3  1  0  0  0  0
  3  4  1  0  0  0  0
  3  7  1  0  0  0  0
  4  5  1  0  0  0  0
  5  6  1  0  0  0  0
  6  7  1  0  0  0  0
  7  8  1  0  0  0  0
  8  9  2  0  0  0  0
  8 13  1  0  0  0  0
  9 10  1  0  0  0  0
 10 11  2  0  0  0  0
 11 12  1  0  0  0  0
 12 13  2  0  0  0  0
M  END
> <Index>
23937

> <PropertyFieldDistance>
nan

$$$$
9398928
BBcorina  12272117083D 1   1.00000     0.00000 
CORINA 4.3.0 0026  30.10.2019
 12 12  0  0  0  0  0  0  0  0999 V2000
  -33.0526    5.7403  -43.8787 C   0  0  0  0  0  0  0  0  0  0  0  0
  -34.3086    5.0427  -43.3526 C   0  0  0  0  0  0  0  0  0  0  0  0
  -34.0538    4.5326  -41.9329 C   0  0  0  0  0  0  0  0  0  0  0  0
  -35.4756    6.0337  -43.3381 C   0  0  0  0  0  0  0  0  0  0  0  0
  -36.7417    5.3123  -42.8676 C   0  0  0  0  0  0  0  0  0  0  0  0
  -37.0206    4.1259  -43.7931 C   0  0  0  0  0  0  0  0  0  0  0  0
  -35.8754    3.2069  -43.7716 N   0  0  0  0  0  0  0  0  0  0  0  0
  -36.1636    1.9884  -44.5399 C   0  0  0  0  0  0  0  0  0  0  0  0
  -36.3176    2.3435  -46.0202 C   0  0  0  0  0  0  0  0  0  0  0  0
  -36.6059    1.1251  -46.7885 N   0  0  0  0  0  0  0  0  0  0  0  0
  -34.6579    3.8640  -44.2640 C   0  0  0  0  0  0  0  0  0  0  0  0
  -36.7858    1.4779  -48.4521 X   0  0  0  0  0  0  0  0  0  0  0  0
  1  2  1  0  0  0  0
  2  3  1  0  0  0  0
  2  4  1  0  0  0  0
  2 11  1  0  0  0  0
  4  5  1  0  0  0  0
  5  6  1  0  0  0  0
  6  7  1  0  0  0  0
  7  8  1  0  0  0  0
  7 11  1  0  0  0  0
  8  9  1  0  0  0  0
  9 10  1  0  0  0  0
 10 12  1  0  0  0  0
M  END
> <Index>
23944

> <PropertyFieldDistance>
nan

$$$$
12311690
BBcorina  12272117083D 1   1.00000     0.00000 
CORINA 4.3.0 0026  30.10.2019
  9  9  0  0  0  0  0  0  0  0999 V2000
  -34.3535    1.6606  -43.0777 O   0  0  0  0  0  0  0  0  0  0  0  0
  -35.0469    2.1448  -44.2295 C   0  0  0  0  0  0  0  0  0  0  0  0
  -36.5096    1.6965  -44.1721 C   0  0  0  0  0  0  0  0  0  0  0  0
  -37.1358    2.2652  -43.0203 O   0  0  0  0  0  0  0  0  0  0  0  0
  -37.1552    3.6941  -43.0124 C   0  0  0  0  0  0  0  0  0  0  0  0
  -35.7184    4.2226  -43.0233 C   0  0  0  0  0  0  0  0  0  0  0  0
  -34.9907    3.6753  -44.2550 C   0  0  0  0  0  0  0  0  0  0  0  0
  -33.5895    4.1160  -44.2341 N   0  0  0  0  0  0  0  0  0  0  0  0
  -33.4029    5.6046  -45.0547 X   0  0  0  0  0  0  0  0  0  0  0  0
  1  2  1  0  0  0  0
  2  3  1  0  0  0  0
  2  7  1  0  0  0  0
  3  4  1  0  0  0  0
  4  5  1  0  0  0  0
  5  6  1  0  0  0  0
  6  7  1  0  0  0  0
  7  8  1  0  0  0  0
  8  9  1  0  0  0  0
M  END
> <Index>
23951

> <PropertyFieldDistance>
nan

$$$$
7107334
BBcorina  12272117083D 1   1.00000     0.00000 
CORINA 4.3.0 0026  30.10.2019
 12 12  0  0  0  0  0  0  0  0999 V2000
  -37.5269    0.6577  -44.9746 C   0  0  0  0  0  0  0  0  0  0  0  0
  -36.9397    1.8215  -45.7755 C   0  0  0  0  0  0  0  0  0  0  0  0
  -36.5778    1.3412  -47.1823 C   0  0  0  0  0  0  0  0  0  0  0  0
  -35.7014    2.3323  -45.0849 C   0  0  0  0  0  0  0  0  0  0  0  0
  -34.6270    1.8151  -45.3058 O   0  0  0  0  0  0  0  0  0  0  0  0
  -35.7880    3.3639  -44.2220 N   0  0  0  0  0  0  0  0  0  0  0  0
  -37.0321    4.0174  -43.7899 C   0  0  0  0  0  0  0  0  0  0  0  0
  -36.6442    5.1201  -42.7822 C   0  0  0  0  0  0  0  0  0  0  0  0
  -35.2507    4.6592  -42.2788 C   0  0  0  0  0  0  0  0  0  0  0  0
  -34.6505    4.0281  -43.5598 C   0  0  0  0  0  0  0  0  0  0  0  0
  -34.4477    5.8045  -41.8301 N   0  0  0  0  0  0  0  0  0  0  0  0
  -34.3843    7.0176  -43.0337 X   0  0  0  0  0  0  0  0  0  0  0  0
  1  2  1  0  0  0  0
  2  3  1  0  0  0  0
  2  4  1  0  0  0  0
  4  5  2  0  0  0  0
  4  6  1  0  0  0  0
  6  7  1  0  0  0  0
  6 10  1  0  0  0  0
  7  8  1  0  0  0  0
  8  9  1  0  0  0  0
  9 10  1  0  0  0  0
  9 11  1  0  0  0  0
 11 12  1  0  0  0  0
M  END
> <Index>
23960

> <PropertyFieldDistance>
nan

$$$$
10975732
BBcorina  12272117083D 1   1.00000     0.00000 
CORINA 4.3.0 0026  30.10.2019
 14 15  0  0  0  0  0  0  0  0999 V2000
  -37.1005    0.7511  -48.7328 F   0  0  0  0  0  0  0  0  0  0  0  0
  -36.8446    1.3443  -47.5463 C   0  0  0  0  0  0  0  0  0  0  0  0
  -35.5458    1.4068  -47.0705 C   0  0  0  0  0  0  0  0  0  0  0  0
  -35.2818    2.0131  -45.8579 C   0  0  0  0  0  0  0  0  0  0  0  0
  -36.3203    2.5599  -45.1154 C   0  0  0  0  0  0  0  0  0  0  0  0
  -37.6231    2.4906  -45.5917 C   0  0  0  0  0  0  0  0  0  0  0  0
  -37.8817    1.8884  -46.8076 C   0  0  0  0  0  0  0  0  0  0  0  0
  -36.0555    3.1742  -43.8877 N   0  0  0  0  0  0  0  0  0  0  0  0
  -37.1172    4.1425  -43.5396 C   0  0  0  0  0  0  0  0  0  0  0  0
  -36.3879    5.2755  -42.7754 C   0  0  0  0  0  0  0  0  0  0  0  0
  -35.0433    5.3572  -43.5507 C   0  0  0  0  0  0  0  0  0  0  0  0
  -34.7642    3.8851  -43.9202 C   0  0  0  0  0  0  0  0  0  0  0  0
  -33.9784    5.8871  -42.6884 N   0  0  0  0  0  0  0  0  0  0  0  0
  -33.7763    7.5682  -42.9272 X   0  0  0  0  0  0  0  0  0  0  0  0
  1  2  1  0  0  0  0
  2  3  2  0  0  0  0
  2  7  1  0  0  0  0
  3  4  1  0  0  0  0
  4  5  2  0  0  0  0
  5  6  1  0  0  0  0
  5  8  1  0  0  0  0
  6  7  2  0  0  0  0
  8  9  1  0  0  0  0
  8 12  1  0  0  0  0
  9 10  1  0  0  0  0
 10 11  1  0  0  0  0
 11 12  1  0  0  0  0
 11 13  1  0  0  0  0
 13 14  1  0  0  0  0
M  END
> <Index>
23964

> <PropertyFieldDistance>
nan

$$$$
9105654
BBcorina  12272117083D 1   1.00000     0.00000 
CORINA 4.3.0 0026  30.10.2019
 14 14  0  0  0  0  0  0  0  0999 V2000
  -36.6552    2.9861  -46.9109 F   0  0  0  0  0  0  0  0  0  0  0  0
  -36.9047    2.0356  -45.9152 C   0  0  0  0  0  0  0  0  0  0  0  0
  -36.8773    0.7543  -46.4762 F   0  0  0  0  0  0  0  0  0  0  0  0
  -38.1632    2.2708  -45.3509 F   0  0  0  0  0  0  0  0  0  0  0  0
  -35.8315    2.1402  -44.8297 C   0  0  0  0  0  0  0  0  0  0  0  0
  -35.7624    3.5238  -44.3412 N   0  0  0  0  0  0  0  0  0  0  0  0
  -36.8800    3.8185  -43.4353 C   0  0  0  0  0  0  0  0  0  0  0  0
  -36.8585    5.3026  -43.0626 C   0  0  0  0  0  0  0  0  0  0  0  0
  -35.5264    5.6343  -42.3845 C   0  0  0  0  0  0  0  0  0  0  0  0
  -35.4747    7.1293  -42.0626 C   0  0  0  0  0  0  0  0  0  0  0  0
  -34.2507    7.4253  -41.3064 N   0  0  0  0  0  0  0  0  0  0  0  0
  -34.3775    5.2731  -43.3300 C   0  0  0  0  0  0  0  0  0  0  0  0
  -34.4709    3.7899  -43.6951 C   0  0  0  0  0  0  0  0  0  0  0  0
  -34.1531    9.0895  -40.9254 X   0  0  0  0  0  0  0  0  0  0  0  0
  1  2  1  0  0  0  0
  2  3  1  0  0  0  0
  2  4  1  0  0  0  0
  2  5  1  0  0  0  0
  5  6  1  0  0  0  0
  6  7  1  0  0  0  0
  6 13  1  0  0  0  0
  7  8  1  0  0  0  0
  8  9  1  0  0  0  0
  9 10  1  0  0  0  0
  9 12  1  0  0  0  0
 10 11  1  0  0  0  0
 11 14  1  0  0  0  0
 12 13  1  0  0  0  0
M  END
> <Index>
23975

> <PropertyFieldDistance>
nan

$$$$
7044270
BBcorina  12272117083D 1   1.00000     0.00000 
CORINA 4.3.0 0026  30.10.2019
 14 15  0  0  0  0  0  0  0  0999 V2000
  -38.6858    3.2568  -45.8253 Cl  0  0  0  0  0  0  0  0  0  0  0  0
  -37.4960    2.0276  -45.5302 C   0  0  0  0  0  0  0  0  0  0  0  0
  -37.7106    0.7275  -45.9531 C   0  0  0  0  0  0  0  0  0  0  0  0
  -36.7340   -0.2244  -45.6906 C   0  0  0  0  0  0  0  0  0  0  0  0
  -35.5823    0.1528  -45.0302 C   0  0  0  0  0  0  0  0  0  0  0  0
  -35.4017    1.4014  -44.6426 N   0  0  0  0  0  0  0  0  0  0  0  0
  -36.3102    2.3371  -44.8691 C   0  0  0  0  0  0  0  0  0  0  0  0
  -36.0783    3.6405  -44.4435 N   0  0  0  0  0  0  0  0  0  0  0  0
  -37.0885    4.0600  -43.4386 C   0  0  0  0  0  0  0  0  0  0  0  0
  -36.4009    5.2475  -42.7191 C   0  0  0  0  0  0  0  0  0  0  0  0
  -34.9223    4.8013  -42.6515 C   0  0  0  0  0  0  0  0  0  0  0  0
  -34.7672    3.7521  -43.7681 C   0  0  0  0  0  0  0  0  0  0  0  0
  -34.0330    5.9442  -42.8987 N   0  0  0  0  0  0  0  0  0  0  0  0
  -34.4678    6.7589  -44.3380 X   0  0  0  0  0  0  0  0  0  0  0  0
  1  2  1  0  0  0  0
  2  3  2  0  0  0  0
  2  7  1  0  0  0  0
  3  4  1  0  0  0  0
  4  5  2  0  0  0  0
  5  6  1  0  0  0  0
  6  7  2  0  0  0  0
  7  8  1  0  0  0  0
  8  9  1  0  0  0  0
  8 12  1  0  0  0  0
  9 10  1  0  0  0  0
 10 11  1  0  0  0  0
 11 12  1  0  0  0  0
 11 13  1  0  0  0  0
 13 14  1  0  0  0  0
M  END
> <Index>
23979

> <PropertyFieldDistance>
nan

$$$$
14479412
BBcorina  12272117083D 1   1.00000     0.00000 
CORINA 4.3.0 0026  30.10.2019
 12 12  0  0  0  0  0  0  0  0999 V2000
  -37.1027    0.5801  -46.2767 C   0  0  0  0  0  0  0  0  0  0  0  0
  -37.0898    1.9749  -45.6482 C   0  0  0  0  0  0  0  0  0  0  0  0
  -35.7176    2.2414  -45.0261 C   0  0  0  0  0  0  0  0  0  0  0  0
  -35.7053    3.5806  -44.4226 N   0  0  0  0  0  0  0  0  0  0  0  0
  -36.8496    3.7618  -43.5203 C   0  0  0  0  0  0  0  0  0  0  0  0
  -36.8861    5.2093  -43.0249 C   0  0  0  0  0  0  0  0  0  0  0  0
  -35.5793    5.5259  -42.2922 C   0  0  0  0  0  0  0  0  0  0  0  0
  -34.4007    5.2828  -43.2389 C   0  0  0  0  0  0  0  0  0  0  0  0
  -34.4363    3.8331  -43.7280 C   0  0  0  0  0  0  0  0  0  0  0  0
  -33.2716    3.5914  -44.6903 C   0  0  0  0  0  0  0  0  0  0  0  0
  -32.0007    3.7691  -43.9753 N   0  0  0  0  0  0  0  0  0  0  0  0
  -30.6729    3.6458  -45.0457 X   0  0  0  0  0  0  0  0  0  0  0  0
  1  2  1  0  0  0  0
  2  3  1  0  0  0  0
  3  4  1  0  0  0  0
  4  5  1  0  0  0  0
  4  9  1  0  0  0  0
  5  6  1  0  0  0  0
  6  7  1  0  0  0  0
  7  8  1  0  0  0  0
  8  9  1  0  0  0  0
  9 10  1  0  0  0  0
 10 11  1  0  0  0  0
 11 12  1  0  0  0  0
M  END
> <Index>
23989

> <PropertyFieldDistance>
nan

$$$$
17763336
BBcorina  12272117083D 1   1.00000     0.00000 
CORINA 4.3.0 0026  30.10.2019
 12 13  0  0  0  0  0  0  0  0999 V2000
  -36.8733    1.5259  -45.1901 C   0  0  0  0  0  0  0  0  0  0  0  0
  -35.7144    2.4891  -45.1853 C   0  0  0  0  0  0  0  0  0  0  0  0
  -34.7236    2.2492  -45.8425 O   0  0  0  0  0  0  0  0  0  0  0  0
  -35.7787    3.6171  -44.4505 N   0  0  0  0  0  0  0  0  0  0  0  0
  -36.9593    3.9616  -43.6309 C   0  0  0  0  0  0  0  0  0  0  0  0
  -36.6480    5.3117  -42.9661 C   0  0  0  0  0  0  0  0  0  0  0  0
  -36.4022    6.3595  -44.0549 C   0  0  0  0  0  0  0  0  0  0  0  0
  -35.2110    5.9365  -44.9181 C   0  0  0  0  0  0  0  0  0  0  0  0
  -34.6702    4.5953  -44.4023 C   0  0  0  0  0  0  0  0  0  0  0  0
  -34.2716    4.7710  -42.9312 C   0  0  0  0  0  0  0  0  0  0  0  0
  -35.4404    5.1749  -42.1424 N   0  0  0  0  0  0  0  0  0  0  0  0
  -35.1255    6.6133  -41.2728 X   0  0  0  0  0  0  0  0  0  0  0  0
  1  2  1  0  0  0  0
  2  3  2  0  0  0  0
  2  4  1  0  0  0  0
  4  5  1  0  0  0  0
  4  9  1  0  0  0  0
  5  6  1  0  0  0  0
  6  7  1  0  0  0  0
  6 11  1  0  0  0  0
  7  8  1  0  0  0  0
  8  9  1  0  0  0  0
  9 10  1  0  0  0  0
 10 11  1  0  0  0  0
 11 12  1  0  0  0  0
M  END
> <Index>
23993

> <PropertyFieldDistance>
nan

$$$$
17798190
BBcorina  12272117083D 1   1.00000     0.00000 
CORINA 4.3.0 0026  30.10.2019
 10 11  0  0  0  0  0  0  0  0999 V2000
  -35.9726    3.7360  -44.3341 N   0  0  0  0  0  0  0  0  0  0  0  0
  -36.6899    3.9241  -43.0669 C   0  0  0  0  0  0  0  0  0  0  0  0
  -37.2144    5.3607  -42.9787 C   0  0  0  0  0  0  0  0  0  0  0  0
  -36.0338    6.3336  -43.0770 C   0  0  0  0  0  0  0  0  0  0  0  0
  -35.0605    6.0512  -41.9271 C   0  0  0  0  0  0  0  0  0  0  0  0
  -34.5994    4.7018  -42.0215 O   0  0  0  0  0  0  0  0  0  0  0  0
  -33.8945    4.4055  -43.2284 C   0  0  0  0  0  0  0  0  0  0  0  0
  -34.8160    4.6373  -44.4295 C   0  0  0  0  0  0  0  0  0  0  0  0
  -35.3076    6.0892  -44.4064 C   0  0  0  0  0  0  0  0  0  0  0  0
  -35.4972    2.1055  -44.5330 X   0  0  0  0  0  0  0  0  0  0  0  0
  1  2  1  0  0  0  0
  1  8  1  0  0  0  0
  1 10  1  0  0  0  0
  2  3  1  0  0  0  0
  3  4  1  0  0  0  0
  4  5  1  0  0  0  0
  4  9  1  0  0  0  0
  5  6  1  0  0  0  0
  6  7  1  0  0  0  0
  7  8  1  0  0  0  0
  8  9  1  0  0  0  0
M  END
> <Index>
23997

> <PropertyFieldDistance>
nan

$$$$
17764064
BBcorina  12272117083D 1   1.00000     0.00000 
CORINA 4.3.0 0026  30.10.2019
 10 11  0  0  0  0  0  0  0  0999 V2000
  -35.0412    3.5203  -46.3540 O   0  0  0  0  0  0  0  0  0  0  0  0
  -34.3501    3.0469  -45.1963 C   0  0  0  0  0  0  0  0  0  0  0  0
  -35.0662    3.5403  -43.9375 C   0  0  0  0  0  0  0  0  0  0  0  0
  -34.4026    4.6116  -43.0698 C   0  0  0  0  0  0  0  0  0  0  0  0
  -34.5490    3.1867  -42.5321 C   0  0  0  0  0  0  0  0  0  0  0  0
  -35.7890    2.8541  -41.6769 C   0  0  0  0  0  0  0  0  0  0  0  0
  -36.8631    2.4361  -42.7116 C   0  0  0  0  0  0  0  0  0  0  0  0
  -36.6015    3.3963  -43.8912 C   0  0  0  0  0  0  0  0  0  0  0  0
  -37.1032    2.8325  -45.1515 N   0  0  0  0  0  0  0  0  0  0  0  0
  -36.4311    1.2871  -45.4419 X   0  0  0  0  0  0  0  0  0  0  0  0
  1  2  1  0  0  0  0
  2  3  1  0  0  0  0
  3  4  1  0  0  0  0
  3  5  1  0  0  0  0
  3  8  1  0  0  0  0
  4  5  1  0  0  0  0
  5  6  1  0  0  0  0
  6  7  1  0  0  0  0
  7  8  1  0  0  0  0
  8  9  1  0  0  0  0
  9 10  1  0  0  0  0
M  END
> <Index>
24000

> <PropertyFieldDistance>
nan

$$$$
17792540
BBcorina  12272117083D 1   1.00000     0.00000 
CORINA 4.3.0 0026  30.10.2019
 11 11  0  0  0  0  0  0  0  0999 V2000
  -34.0163    3.8802  -42.0372 C   0  0  0  0  0  0  0  0  0  0  0  0
  -34.2558    4.9088  -43.1443 C   0  0  0  0  0  0  0  0  0  0  0  0
  -32.9630    5.6821  -43.4116 C   0  0  0  0  0  0  0  0  0  0  0  0
  -31.9084    4.7447  -43.8310 C   0  0  0  0  0  0  0  0  0  0  0  0
  -31.0945    4.0213  -44.1546 N   0  0  0  0  0  0  0  0  0  0  0  0
  -35.3535    5.8832  -42.7081 C   0  0  0  0  0  0  0  0  0  0  0  0
  -36.6587    5.1099  -42.5007 C   0  0  0  0  0  0  0  0  0  0  0  0
  -37.0290    4.3869  -43.7977 C   0  0  0  0  0  0  0  0  0  0  0  0
  -35.9479    3.4664  -44.1723 N   0  0  0  0  0  0  0  0  0  0  0  0
  -34.6958    4.1916  -44.4227 C   0  0  0  0  0  0  0  0  0  0  0  0
  -36.3898    2.5210  -45.5269 X   0  0  0  0  0  0  0  0  0  0  0  0
  1  2  1  0  0  0  0
  2  3  1  0  0  0  0
  2  6  1  0  0  0  0
  2 10  1  0  0  0  0
  3  4  1  0  0  0  0
  4  5  3  0  0  0  0
  6  7  1  0  0  0  0
  7  8  1  0  0  0  0
  8  9  1  0  0  0  0
  9 10  1  0  0  0  0
  9 11  1  0  0  0  0
M  END
> <Index>
24026

> <PropertyFieldDistance>
nan

$$$$
17598628
BBcorina  12272117083D 1   1.00000     0.00000 
CORINA 4.3.0 0026  30.10.2019
 11 12  0  0  0  0  0  0  0  0999 V2000
  -36.0173    3.5927  -44.4913 N   0  0  0  0  0  0  0  0  0  0  0  0
  -36.3933    2.1752  -44.5752 C   0  0  0  0  0  0  0  0  0  0  0  0
  -36.1059    1.6538  -45.9847 C   0  0  0  0  0  0  0  0  0  0  0  0
  -34.5715    1.5301  -46.2295 C   0  0  0  0  0  0  0  0  0  0  0  0
  -34.4611    0.4696  -47.3436 C   0  0  0  0  0  0  0  0  0  0  0  0
  -34.4539    1.1809  -48.7116 C   0  0  0  0  0  0  0  0  0  0  0  0
  -35.3550    0.2955  -49.6074 C   0  0  0  0  0  0  0  0  0  0  0  0
  -36.4798   -0.1397  -48.6361 C   0  0  0  0  0  0  0  0  0  0  0  0
  -35.7551   -0.3742  -47.2954 C   0  0  0  0  0  0  0  0  0  0  0  0
  -36.6067    0.1970  -46.1438 C   0  0  0  0  0  0  0  0  0  0  0  0
  -36.3230    4.2163  -42.9287 X   0  0  0  0  0  0  0  0  0  0  0  0
  1  2  1  0  0  0  0
  1 11  1  0  0  0  0
  2  3  1  0  0  0  0
  3  4  1  0  0  0  0
  3 10  1  0  0  0  0
  4  5  1  0  0  0  0
  5  6  1  0  0  0  0
  5  9  1  0  0  0  0
  6  7  1  0  0  0  0
  7  8  1  0  0  0  0
  8  9  1  0  0  0  0
  9 10  1  0  0  0  0
M  END
> <Index>
24066

> <PropertyFieldDistance>
nan

$$$$
16946178
BBcorina  12272117083D 1   1.00000     0.00000 
CORINA 4.3.0 0026  30.10.2019
 11 12  0  0  0  0  0  0  0  0999 V2000
  -36.6083    2.4514  -46.0491 C   0  0  0  0  0  0  0  0  0  0  0  0
  -36.0187    2.0389  -44.6988 C   0  0  0  0  0  0  0  0  0  0  0  0
  -35.0270    0.8738  -44.6873 C   0  0  0  0  0  0  0  0  0  0  0  0
  -36.4385    0.6824  -44.1289 C   0  0  0  0  0  0  0  0  0  0  0  0
  -35.7903    3.1335  -43.7462 N   0  0  0  0  0  0  0  0  0  0  0  0
  -36.9369    4.0530  -43.7158 C   0  0  0  0  0  0  0  0  0  0  0  0
  -36.6940    5.1312  -42.6571 C   0  0  0  0  0  0  0  0  0  0  0  0
  -35.4524    5.8519  -42.9708 N   0  0  0  0  0  0  0  0  0  0  0  0
  -34.3064    4.9325  -43.0011 C   0  0  0  0  0  0  0  0  0  0  0  0
  -34.5487    3.8543  -44.0600 C   0  0  0  0  0  0  0  0  0  0  0  0
  -35.1865    7.1262  -41.8619 X   0  0  0  0  0  0  0  0  0  0  0  0
  1  2  1  0  0  0  0
  2  3  1  0  0  0  0
  2  4  1  0  0  0  0
  2  5  1  0  0  0  0
  3  4  1  0  0  0  0
  5  6  1  0  0  0  0
  5 10  1  0  0  0  0
  6  7  1  0  0  0  0
  7  8  1  0  0  0  0
  8  9  1  0  0  0  0
  8 11  1  0  0  0  0
  9 10  1  0  0  0  0
M  END
> <Index>
24076

> <PropertyFieldDistance>
nan

$$$$
10391138
BBcorina  12272117083D 1   1.00000     0.00000 
CORINA 4.3.0 0026  30.10.2019
 11 12  0  0  0  0  0  0  0  0999 V2000
  -36.0504    3.5865  -44.4810 N   0  0  0  0  0  0  0  0  0  0  0  0
  -37.0294    4.4814  -43.8266 C   0  0  0  0  0  0  0  0  0  0  0  0
  -36.4461    4.8706  -42.4556 C   0  0  0  0  0  0  0  0  0  0  0  0
  -35.0709    4.1676  -42.3876 C   0  0  0  0  0  0  0  0  0  0  0  0
  -34.7319    3.9246  -43.8797 C   0  0  0  0  0  0  0  0  0  0  0  0
  -34.0736    5.0389  -41.7608 N   0  0  0  0  0  0  0  0  0  0  0  0
  -33.3389    5.9825  -42.3859 C   0  0  0  0  0  0  0  0  0  0  0  0
  -32.5426    6.5656  -41.4602 C   0  0  0  0  0  0  0  0  0  0  0  0
  -32.7926    5.9507  -40.2290 C   0  0  0  0  0  0  0  0  0  0  0  0
  -33.7101    5.0354  -40.4080 N   0  0  0  0  0  0  0  0  0  0  0  0
  -36.0372    3.8262  -46.1741 X   0  0  0  0  0  0  0  0  0  0  0  0
  1  2  1  0  0  0  0
  1  5  1  0  0  0  0
  1 11  1  0  0  0  0
  2  3  1  0  0  0  0
  3  4  1  0  0  0  0
  4  5  1  0  0  0  0
  4  6  1  0  0  0  0
  6  7  1  0  0  0  0
  6 10  1  0  0  0  0
  7  8  2  0  0  0  0
  8  9  1  0  0  0  0
  9 10  2  0  0  0  0
M  END
> <Index>
24084

> <PropertyFieldDistance>
nan

$$$$
16980352
BBcorina  12272117083D 1   1.00000     0.00000 
CORINA 4.3.0 0026  30.10.2019
 11 12  0  0  0  0  0  0  0  0999 V2000
  -36.8402    8.2377  -40.7949 C   0  0  0  0  0  0  0  0  0  0  0  0
  -36.5519    6.7350  -40.7870 C   0  0  0  0  0  0  0  0  0  0  0  0
  -37.5139    5.9934  -41.7592 C   0  0  0  0  0  0  0  0  0  0  0  0
  -36.5863    4.9373  -42.3838 C   0  0  0  0  0  0  0  0  0  0  0  0
  -37.0295    4.4463  -43.7555 C   0  0  0  0  0  0  0  0  0  0  0  0
  -35.9779    3.5445  -44.2636 N   0  0  0  0  0  0  0  0  0  0  0  0
  -34.6659    4.1939  -44.3431 C   0  0  0  0  0  0  0  0  0  0  0  0
  -34.2707    4.7985  -43.0006 C   0  0  0  0  0  0  0  0  0  0  0  0
  -35.3274    5.7059  -42.5809 N   0  0  0  0  0  0  0  0  0  0  0  0
  -35.1329    6.4562  -41.3416 C   0  0  0  0  0  0  0  0  0  0  0  0
  -36.4221    2.8737  -45.7724 X   0  0  0  0  0  0  0  0  0  0  0  0
  1  2  1  0  0  0  0
  2  3  1  0  0  0  0
  2 10  1  0  0  0  0
  3  4  1  0  0  0  0
  4  5  1  0  0  0  0
  4  9  1  0  0  0  0
  5  6  1  0  0  0  0
  6  7  1  0  0  0  0
  6 11  1  0  0  0  0
  7  8  1  0  0  0  0
  8  9  1  0  0  0  0
  9 10  1  0  0  0  0
M  END
> <Index>
24092

> <PropertyFieldDistance>
nan

$$$$
13849092
BBcorina  12272117083D 1   1.00000     0.00000 
CORINA 4.3.0 0026  30.10.2019
 12 13  0  0  0  0  0  0  0  0999 V2000
  -36.3608    2.4349  -45.0326 C   0  0  0  0  0  0  0  0  0  0  0  0
  -35.9561    3.3044  -43.9198 N   0  0  0  0  0  0  0  0  0  0  0  0
  -37.0233    4.2581  -43.5811 C   0  0  0  0  0  0  0  0  0  0  0  0
  -36.5833    5.1059  -42.3853 C   0  0  0  0  0  0  0  0  0  0  0  0
  -35.3437    5.8206  -42.7209 N   0  0  0  0  0  0  0  0  0  0  0  0
  -34.2695    4.8737  -43.0559 C   0  0  0  0  0  0  0  0  0  0  0  0
  -34.7083    4.0028  -44.2273 C   0  0  0  0  0  0  0  0  0  0  0  0
  -33.6025    2.9924  -44.5841 C   0  0  0  0  0  0  0  0  0  0  0  0
  -33.2242    3.3544  -46.0388 C   0  0  0  0  0  0  0  0  0  0  0  0
  -33.6105    4.7386  -46.1877 O   0  0  0  0  0  0  0  0  0  0  0  0
  -34.8737    4.8602  -45.4956 C   0  0  0  0  0  0  0  0  0  0  0  0
  -34.8707    6.8585  -41.4469 X   0  0  0  0  0  0  0  0  0  0  0  0
  1  2  1  0  0  0  0
  2  3  1  0  0  0  0
  2  7  1  0  0  0  0
  3  4  1  0  0  0  0
  4  5  1  0  0  0  0
  5  6  1  0  0  0  0
  5 12  1  0  0  0  0
  6  7  1  0  0  0  0
  7  8  1  0  0  0  0
  7 11  1  0  0  0  0
  8  9  1  0  0  0  0
  9 10  1  0  0  0  0
 10 11  1  0  0  0  0
M  END
> <Index>
24103

> <PropertyFieldDistance>
nan

$$$$
13424592
BBcorina  12272117083D 1   1.00000     0.00000 
CORINA 4.3.0 0026  30.10.2019
 10 11  0  0  0  0  0  0  0  0999 V2000
  -36.0147    4.0363  -44.4695 N   0  0  0  0  0  0  0  0  0  0  0  0
  -36.8750    3.9240  -43.3117 C   0  0  0  0  0  0  0  0  0  0  0  0
  -36.9584    5.2983  -42.7178 C   0  0  0  0  0  0  0  0  0  0  0  0
  -35.8902    5.4656  -41.5919 C   0  0  0  0  0  0  0  0  0  0  0  0
  -35.2431    6.8098  -42.1229 C   0  0  0  0  0  0  0  0  0  0  0  0
  -34.6845    6.3510  -43.5036 C   0  0  0  0  0  0  0  0  0  0  0  0
  -34.1355    4.9537  -43.2732 C   0  0  0  0  0  0  0  0  0  0  0  0
  -34.6844    4.5163  -41.9020 C   0  0  0  0  0  0  0  0  0  0  0  0
  -34.6037    3.8513  -44.2655 C   0  0  0  0  0  0  0  0  0  0  0  0
  -36.5821    3.0573  -45.7515 X   0  0  0  0  0  0  0  0  0  0  0  0
  1  2  1  0  0  0  0
  1  9  1  0  0  0  0
  1 10  1  0  0  0  0
  2  3  1  0  0  0  0
  3  4  1  0  0  0  0
  4  5  1  0  0  0  0
  4  8  1  0  0  0  0
  5  6  1  0  0  0  0
  6  7  1  0  0  0  0
  7  8  1  0  0  0  0
  7  9  1  0  0  0  0
M  END
> <Index>
24121

> <PropertyFieldDistance>
nan

$$$$
18238220
BBcorina  12272117083D 1   1.00000     0.00000 
CORINA 4.3.0 0026  30.10.2019
 13 13  0  0  0  0  0  0  0  0999 V2000
  -35.5907    1.6389  -45.6604 C   0  0  0  0  0  0  0  0  0  0  0  0
  -36.5882    2.4909  -44.9185 C   0  0  0  0  0  0  0  0  0  0  0  0
  -37.7435    2.1328  -44.8291 O   0  0  0  0  0  0  0  0  0  0  0  0
  -36.1965    3.6506  -44.3547 N   0  0  0  0  0  0  0  0  0  0  0  0
  -37.1537    4.4970  -43.6263 C   0  0  0  0  0  0  0  0  0  0  0  0
  -36.5627    4.8283  -42.2518 C   0  0  0  0  0  0  0  0  0  0  0  0
  -35.2252    5.4104  -42.4248 N   0  0  0  0  0  0  0  0  0  0  0  0
  -34.6945    5.8998  -41.1453 C   0  0  0  0  0  0  0  0  0  0  0  0
  -33.2187    6.2668  -41.3123 C   0  0  0  0  0  0  0  0  0  0  0  0
  -32.6880    6.7561  -40.0328 N   0  0  0  0  0  0  0  0  0  0  0  0
  -34.3023    4.4504  -43.0448 C   0  0  0  0  0  0  0  0  0  0  0  0
  -34.8006    4.1036  -44.4518 C   0  0  0  0  0  0  0  0  0  0  0  0
  -31.0371    7.1784  -40.1755 X   0  0  0  0  0  0  0  0  0  0  0  0
  1  2  1  0  0  0  0
  2  3  2  0  0  0  0
  2  4  1  0  0  0  0
  4  5  1  0  0  0  0
  4 12  1  0  0  0  0
  5  6  1  0  0  0  0
  6  7  1  0  0  0  0
  7  8  1  0  0  0  0
  7 11  1  0  0  0  0
  8  9  1  0  0  0  0
  9 10  1  0  0  0  0
 10 13  1  0  0  0  0
 11 12  1  0  0  0  0
M  END
> <Index>
24137

> <PropertyFieldDistance>
nan

$$$$
12626210
BBcorina  12272117083D 1   1.00000     0.00000 
CORINA 4.3.0 0026  30.10.2019
 13 14  0  0  0  0  0  0  0  0999 V2000
  -36.9629    1.5899  -45.1794 C   0  0  0  0  0  0  0  0  0  0  0  0
  -35.6968    2.4002  -45.0716 C   0  0  0  0  0  0  0  0  0  0  0  0
  -34.6495    1.9461  -45.4811 O   0  0  0  0  0  0  0  0  0  0  0  0
  -35.7285    3.6296  -44.5201 N   0  0  0  0  0  0  0  0  0  0  0  0
  -36.9731    4.2430  -44.0008 C   0  0  0  0  0  0  0  0  0  0  0  0
  -36.7576    4.8125  -42.6000 C   0  0  0  0  0  0  0  0  0  0  0  0
  -35.5245    5.5503  -42.5010 O   0  0  0  0  0  0  0  0  0  0  0  0
  -34.4266    4.7471  -42.8569 C   0  0  0  0  0  0  0  0  0  0  0  0
  -33.0129    5.2909  -42.7579 C   0  0  0  0  0  0  0  0  0  0  0  0
  -32.2505    4.6313  -43.8524 N   0  0  0  0  0  0  0  0  0  0  0  0
  -33.1974    3.7860  -44.6363 C   0  0  0  0  0  0  0  0  0  0  0  0
  -34.5400    4.4616  -44.3803 C   0  0  0  0  0  0  0  0  0  0  0  0
  -30.9663    3.6924  -43.2252 X   0  0  0  0  0  0  0  0  0  0  0  0
  1  2  1  0  0  0  0
  2  3  2  0  0  0  0
  2  4  1  0  0  0  0
  4  5  1  0  0  0  0
  4 12  1  0  0  0  0
  5  6  1  0  0  0  0
  6  7  1  0  0  0  0
  7  8  1  0  0  0  0
  8  9  1  0  0  0  0
  8 12  1  0  0  0  0
  9 10  1  0  0  0  0
 10 11  1  0  0  0  0
 10 13  1  0  0  0  0
 11 12  1  0  0  0  0
M  END
> <Index>
24138

> <PropertyFieldDistance>
nan

$$$$
12899130
BBcorina  12272117083D 1   1.00000     0.00000 
CORINA 4.3.0 0026  30.10.2019
 12 13  0  0  0  0  0  0  0  0999 V2000
  -35.6580    1.6270  -45.8636 C   0  0  0  0  0  0  0  0  0  0  0  0
  -36.6642    2.4224  -45.0723 C   0  0  0  0  0  0  0  0  0  0  0  0
  -37.8488    2.1921  -45.1924 O   0  0  0  0  0  0  0  0  0  0  0  0
  -36.2475    3.3895  -44.2313 N   0  0  0  0  0  0  0  0  0  0  0  0
  -37.1166    4.2358  -43.4043 C   0  0  0  0  0  0  0  0  0  0  0  0
  -36.2237    5.2420  -42.6565 C   0  0  0  0  0  0  0  0  0  0  0  0
  -36.7778    6.6623  -42.8716 C   0  0  0  0  0  0  0  0  0  0  0  0
  -36.1433    7.2131  -44.0813 N   0  0  0  0  0  0  0  0  0  0  0  0
  -35.2590    6.1825  -44.6614 C   0  0  0  0  0  0  0  0  0  0  0  0
  -34.8943    5.2258  -43.4774 C   0  0  0  0  0  0  0  0  0  0  0  0
  -34.8460    3.7666  -43.9862 C   0  0  0  0  0  0  0  0  0  0  0  0
  -37.3200    7.7193  -45.2141 X   0  0  0  0  0  0  0  0  0  0  0  0
  1  2  1  0  0  0  0
  2  3  2  0  0  0  0
  2  4  1  0  0  0  0
  4  5  1  0  0  0  0
  4 11  1  0  0  0  0
  5  6  1  0  0  0  0
  6  7  1  0  0  0  0
  6 10  1  0  0  0  0
  7  8  1  0  0  0  0
  8  9  1  0  0  0  0
  8 12  1  0  0  0  0
  9 10  1  0  0  0  0
 10 11  1  0  0  0  0
M  END
> <Index>
24139

> <PropertyFieldDistance>
nan

$$$$
15143176
BBcorina  12272117083D 1   1.00000     0.00000 
CORINA 4.3.0 0026  30.10.2019
 12 13  0  0  0  0  0  0  0  0999 V2000
  -36.0191    3.9414  -44.5845 N   0  0  0  0  0  0  0  0  0  0  0  0
  -36.9723    4.0087  -43.4695 C   0  0  0  0  0  0  0  0  0  0  0  0
  -36.6793    5.2476  -42.6202 C   0  0  0  0  0  0  0  0  0  0  0  0
  -35.2462    5.1676  -42.0870 C   0  0  0  0  0  0  0  0  0  0  0  0
  -34.2770    5.0496  -43.2665 C   0  0  0  0  0  0  0  0  0  0  0  0
  -34.6396    3.8164  -44.0970 C   0  0  0  0  0  0  0  0  0  0  0  0
  -34.9316    6.4133  -41.2993 C   0  0  0  0  0  0  0  0  0  0  0  0
  -34.5779    6.4793  -39.9935 C   0  0  0  0  0  0  0  0  0  0  0  0
  -34.3984    7.8617  -39.7577 C   0  0  0  0  0  0  0  0  0  0  0  0
  -34.6483    8.4624  -40.8852 N   0  0  0  0  0  0  0  0  0  0  0  0
  -34.9408    7.6741  -41.7543 O   0  0  0  0  0  0  0  0  0  0  0  0
  -36.4111    2.6621  -45.6494 X   0  0  0  0  0  0  0  0  0  0  0  0
  1  2  1  0  0  0  0
  1  6  1  0  0  0  0
  1 12  1  0  0  0  0
  2  3  1  0  0  0  0
  3  4  1  0  0  0  0
  4  5  1  0  0  0  0
  4  7  1  0  0  0  0
  5  6  1  0  0  0  0
  7  8  2  0  0  0  0
  7 11  1  0  0  0  0
  8  9  1  0  0  0  0
  9 10  2  0  0  0  0
 10 11  1  0  0  0  0
M  END
> <Index>
24148

> <PropertyFieldDistance>
nan

$$$$
13781068
BBcorina  12272117083D 1   1.00000     0.00000 
CORINA 4.3.0 0026  30.10.2019
  9  9  0  0  0  0  0  0  0  0999 V2000
  -40.3791    2.6890  -44.9823 C   0  0  0  0  0  0  0  0  0  0  0  0
  -39.1611    3.6083  -45.0940 C   0  0  0  0  0  0  0  0  0  0  0  0
  -39.6116    4.9995  -45.5440 C   0  0  0  0  0  0  0  0  0  0  0  0
  -38.4732    3.7110  -43.7312 C   0  0  0  0  0  0  0  0  0  0  0  0
  -37.1869    4.5279  -43.8695 C   0  0  0  0  0  0  0  0  0  0  0  0
  -36.4760    4.7969  -42.5309 C   0  0  0  0  0  0  0  0  0  0  0  0
  -35.1656    4.4909  -43.2783 C   0  0  0  0  0  0  0  0  0  0  0  0
  -36.0008    3.7170  -44.2231 N   0  0  0  0  0  0  0  0  0  0  0  0
  -35.5227    4.0031  -45.8398 X   0  0  0  0  0  0  0  0  0  0  0  0
  1  2  1  0  0  0  0
  2  3  1  0  0  0  0
  2  4  1  0  0  0  0
  4  5  1  0  0  0  0
  5  6  1  0  0  0  0
  5  8  1  0  0  0  0
  6  7  1  0  0  0  0
  7  8  1  0  0  0  0
  8  9  1  0  0  0  0
M  END
> <Index>
24150

> <PropertyFieldDistance>
nan

$$$$
8583792
BBcorina  12272117083D 1   1.00000     0.00000 
CORINA 4.3.0 0026  30.10.2019
 16 17  0  0  0  0  0  0  0  0999 V2000
  -37.4649    2.1461  -48.4450 C   0  0  0  0  0  0  0  0  0  0  0  0
  -37.0600    1.7498  -47.0485 C   0  0  0  0  0  0  0  0  0  0  0  0
  -37.0556    0.4166  -46.6837 C   0  0  0  0  0  0  0  0  0  0  0  0
  -36.6847    0.0477  -45.4030 C   0  0  0  0  0  0  0  0  0  0  0  0
  -36.3168    1.0125  -44.4839 C   0  0  0  0  0  0  0  0  0  0  0  0
  -35.9538    0.6524  -43.2335 F   0  0  0  0  0  0  0  0  0  0  0  0
  -36.3206    2.3549  -44.8490 C   0  0  0  0  0  0  0  0  0  0  0  0
  -36.6994    2.7203  -46.1332 C   0  0  0  0  0  0  0  0  0  0  0  0
  -35.9490    3.3343  -43.9224 N   0  0  0  0  0  0  0  0  0  0  0  0
  -37.0462    4.2824  -43.6903 C   0  0  0  0  0  0  0  0  0  0  0  0
  -36.6584    5.2489  -42.5691 C   0  0  0  0  0  0  0  0  0  0  0  0
  -35.3851    6.0005  -42.9674 C   0  0  0  0  0  0  0  0  0  0  0  0
  -34.2717    4.9881  -43.2503 C   0  0  0  0  0  0  0  0  0  0  0  0
  -34.7288    4.0291  -44.3519 C   0  0  0  0  0  0  0  0  0  0  0  0
  -34.9751    6.8873  -41.8704 N   0  0  0  0  0  0  0  0  0  0  0  0
  -34.6613    5.9952  -40.4458 X   0  0  0  0  0  0  0  0  0  0  0  0
  1  2  1  0  0  0  0
  2  3  2  0  0  0  0
  2  8  1  0  0  0  0
  3  4  1  0  0  0  0
  4  5  2  0  0  0  0
  5  6  1  0  0  0  0
  5  7  1  0  0  0  0
  7  8  2  0  0  0  0
  7  9  1  0  0  0  0
  9 10  1  0  0  0  0
  9 14  1  0  0  0  0
 10 11  1  0  0  0  0
 11 12  1  0  0  0  0
 12 13  1  0  0  0  0
 12 15  1  0  0  0  0
 13 14  1  0  0  0  0
 15 16  1  0  0  0  0
M  END
> <Index>
24166

> <PropertyFieldDistance>
nan

$$$$
8593800
BBcorina  12272117083D 1   1.00000     0.00000 
CORINA 4.3.0 0026  30.10.2019
 13 14  0  0  0  0  0  0  0  0999 V2000
  -33.7874   10.0537  -40.9160 Cl  0  0  0  0  0  0  0  0  0  0  0  0
  -34.3383    8.4116  -40.7981 C   0  0  0  0  0  0  0  0  0  0  0  0
  -34.6949    7.7453  -39.6205 C   0  0  0  0  0  0  0  0  0  0  0  0
  -35.0607    6.5286  -39.9338 N   0  0  0  0  0  0  0  0  0  0  0  0
  -34.9403    6.3786  -41.3214 N   0  0  0  0  0  0  0  0  0  0  0  0
  -34.4982    7.5492  -41.8292 C   0  0  0  0  0  0  0  0  0  0  0  0
  -35.2462    5.1676  -42.0870 C   0  0  0  0  0  0  0  0  0  0  0  0
  -36.6793    5.2476  -42.6202 C   0  0  0  0  0  0  0  0  0  0  0  0
  -36.9723    4.0087  -43.4695 C   0  0  0  0  0  0  0  0  0  0  0  0
  -36.0191    3.9414  -44.5845 N   0  0  0  0  0  0  0  0  0  0  0  0
  -34.6396    3.8164  -44.0970 C   0  0  0  0  0  0  0  0  0  0  0  0
  -34.2770    5.0496  -43.2665 C   0  0  0  0  0  0  0  0  0  0  0  0
  -36.4111    2.6621  -45.6494 X   0  0  0  0  0  0  0  0  0  0  0  0
  1  2  1  0  0  0  0
  2  3  1  0  0  0  0
  2  6  2  0  0  0  0
  3  4  2  0  0  0  0
  4  5  1  0  0  0  0
  5  6  1  0  0  0  0
  5  7  1  0  0  0  0
  7  8  1  0  0  0  0
  7 12  1  0  0  0  0
  8  9  1  0  0  0  0
  9 10  1  0  0  0  0
 10 11  1  0  0  0  0
 10 13  1  0  0  0  0
 11 12  1  0  0  0  0
M  END
> <Index>
24167

> <PropertyFieldDistance>
nan

$$$$
9046706
BBcorina  12272117083D 1   1.00000     0.00000 
CORINA 4.3.0 0026  30.10.2019
 13 14  0  0  0  0  0  0  0  0999 V2000
  -36.0191    3.9414  -44.5845 N   0  0  0  0  0  0  0  0  0  0  0  0
  -36.9723    4.0087  -43.4695 C   0  0  0  0  0  0  0  0  0  0  0  0
  -36.6793    5.2476  -42.6201 C   0  0  0  0  0  0  0  0  0  0  0  0
  -35.2462    5.1676  -42.0870 C   0  0  0  0  0  0  0  0  0  0  0  0
  -34.9268    6.4323  -41.2874 C   0  0  0  0  0  0  0  0  0  0  0  0
  -33.6006    6.3032  -40.6785 N   0  0  0  0  0  0  0  0  0  0  0  0
  -32.5679    7.1538  -40.8091 C   0  0  0  0  0  0  0  0  0  0  0  0
  -31.5648    6.6846  -40.1123 N   0  0  0  0  0  0  0  0  0  0  0  0
  -31.9176    5.5415  -39.5256 C   0  0  0  0  0  0  0  0  0  0  0  0
  -33.1537    5.2633  -39.8470 N   0  0  0  0  0  0  0  0  0  0  0  0
  -34.2770    5.0496  -43.2665 C   0  0  0  0  0  0  0  0  0  0  0  0
  -34.6396    3.8164  -44.0970 C   0  0  0  0  0  0  0  0  0  0  0  0
  -36.4111    2.6621  -45.6494 X   0  0  0  0  0  0  0  0  0  0  0  0
  1  2  1  0  0  0  0
  1 12  1  0  0  0  0
  1 13  1  0  0  0  0
  2  3  1  0  0  0  0
  3  4  1  0  0  0  0
  4  5  1  0  0  0  0
  4 11  1  0  0  0  0
  5  6  1  0  0  0  0
  6  7  1  0  0  0  0
  6 10  1  0  0  0  0
  7  8  2  0  0  0  0
  8  9  1  0  0  0  0
  9 10  2  0  0  0  0
 11 12  1  0  0  0  0
M  END
> <Index>
24174

> <PropertyFieldDistance>
nan

$$$$
13317514
BBcorina  12272117083D 1   1.00000     0.00000 
CORINA 4.3.0 0026  30.10.2019
 12 12  0  0  0  0  0  0  0  0999 V2000
  -35.1447   -0.7274  -45.6511 C   0  0  0  0  0  0  0  0  0  0  0  0
  -35.7775    0.2204  -44.7241 N   0  0  0  0  0  0  0  0  0  0  0  0
  -35.6637    1.5981  -45.2210 C   0  0  0  0  0  0  0  0  0  0  0  0
  -36.3328    2.5541  -44.2313 C   0  0  0  0  0  0  0  0  0  0  0  0
  -36.2189    3.9318  -44.7281 N   0  0  0  0  0  0  0  0  0  0  0  0
  -37.0497    4.8498  -43.9323 C   0  0  0  0  0  0  0  0  0  0  0  0
  -36.6743    4.6983  -42.4570 C   0  0  0  0  0  0  0  0  0  0  0  0
  -35.2264    4.7966  -42.2965 N   0  0  0  0  0  0  0  0  0  0  0  0
  -34.3702    4.6380  -43.3112 C   0  0  0  0  0  0  0  0  0  0  0  0
  -33.1808    4.7054  -43.0838 O   0  0  0  0  0  0  0  0  0  0  0  0
  -34.8199    4.3799  -44.7215 C   0  0  0  0  0  0  0  0  0  0  0  0
  -37.4119   -0.1964  -44.4425 X   0  0  0  0  0  0  0  0  0  0  0  0
  1  2  1  0  0  0  0
  2  3  1  0  0  0  0
  2 12  1  0  0  0  0
  3  4  1  0  0  0  0
  4  5  1  0  0  0  0
  5  6  1  0  0  0  0
  5 11  1  0  0  0  0
  6  7  1  0  0  0  0
  7  8  1  0  0  0  0
  8  9  1  0  0  0  0
  9 10  2  0  0  0  0
  9 11  1  0  0  0  0
M  END
> <Index>
24176

> <PropertyFieldDistance>
nan

$$$$
17852090
BBcorina  12272117083D 1   1.00000     0.00000 
CORINA 4.3.0 0026  30.10.2019
 12 13  0  0  0  0  0  0  0  0999 V2000
  -34.1763    7.0510  -39.1667 O   0  0  0  0  0  0  0  0  0  0  0  0
  -33.9522    6.2913  -40.3560 C   0  0  0  0  0  0  0  0  0  0  0  0
  -34.5371    4.8882  -40.1820 C   0  0  0  0  0  0  0  0  0  0  0  0
  -34.2871    4.0712  -41.4523 C   0  0  0  0  0  0  0  0  0  0  0  0
  -34.9388    4.7671  -42.6424 C   0  0  0  0  0  0  0  0  0  0  0  0
  -36.4668    4.8274  -42.4447 C   0  0  0  0  0  0  0  0  0  0  0  0
  -37.0094    4.5486  -43.8699 C   0  0  0  0  0  0  0  0  0  0  0  0
  -36.0599    3.5390  -44.4051 N   0  0  0  0  0  0  0  0  0  0  0  0
  -34.7215    3.9480  -43.9233 C   0  0  0  0  0  0  0  0  0  0  0  0
  -34.3805    6.1759  -42.8147 C   0  0  0  0  0  0  0  0  0  0  0  0
  -34.6303    6.9849  -41.5394 C   0  0  0  0  0  0  0  0  0  0  0  0
  -36.1096    3.4963  -46.1138 X   0  0  0  0  0  0  0  0  0  0  0  0
  1  2  1  0  0  0  0
  2  3  1  0  0  0  0
  2 11  1  0  0  0  0
  3  4  1  0  0  0  0
  4  5  1  0  0  0  0
  5  6  1  0  0  0  0
  5  9  1  0  0  0  0
  5 10  1  0  0  0  0
  6  7  1  0  0  0  0
  7  8  1  0  0  0  0
  8  9  1  0  0  0  0
  8 12  1  0  0  0  0
 10 11  1  0  0  0  0
M  END
> <Index>
24189

> <PropertyFieldDistance>
nan

$$$$
17786122
BBcorina  12272117083D 1   1.00000     0.00000 
CORINA 4.3.0 0026  30.10.2019
 13 14  0  0  0  0  0  0  0  0999 V2000
  -36.2599    2.7588  -45.4767 C   0  0  0  0  0  0  0  0  0  0  0  0
  -36.0241    3.2731  -44.1211 N   0  0  0  0  0  0  0  0  0  0  0  0
  -37.1957    4.0308  -43.6304 C   0  0  0  0  0  0  0  0  0  0  0  0
  -37.2055    3.9735  -42.1235 C   0  0  0  0  0  0  0  0  0  0  0  0
  -36.4754    5.1710  -41.4947 C   0  0  0  0  0  0  0  0  0  0  0  0
  -35.2255    5.5117  -42.2115 N   0  0  0  0  0  0  0  0  0  0  0  0
  -34.4471    4.3585  -42.6073 C   0  0  0  0  0  0  0  0  0  0  0  0
  -34.8179    3.9811  -44.0558 C   0  0  0  0  0  0  0  0  0  0  0  0
  -34.4122    6.4550  -41.4327 C   0  0  0  0  0  0  0  0  0  0  0  0
  -33.0413    6.7587  -42.0635 C   0  0  0  0  0  0  0  0  0  0  0  0
  -33.2910    8.1677  -41.6875 N   0  0  0  0  0  0  0  0  0  0  0  0
  -34.7518    7.9326  -41.6991 C   0  0  0  0  0  0  0  0  0  0  0  0
  -32.8310    9.2289  -42.9470 X   0  0  0  0  0  0  0  0  0  0  0  0
  1  2  1  0  0  0  0
  2  3  1  0  0  0  0
  2  8  1  0  0  0  0
  3  4  1  0  0  0  0
  4  5  1  0  0  0  0
  5  6  1  0  0  0  0
  6  7  1  0  0  0  0
  6  9  1  0  0  0  0
  7  8  1  0  0  0  0
  9 10  1  0  0  0  0
  9 12  1  0  0  0  0
 10 11  1  0  0  0  0
 11 12  1  0  0  0  0
 11 13  1  0  0  0  0
M  END
> <Index>
24195

> <PropertyFieldDistance>
nan

$$$$
18052816
BBcorina  12272117083D 1   1.00000     0.00000 
CORINA 4.3.0 0026  30.10.2019
 15 16  0  0  0  0  0  0  0  0999 V2000
  -36.3971    2.8674  -46.1790 C   0  0  0  0  0  0  0  0  0  0  0  0
  -36.2306    2.0758  -44.8803 C   0  0  0  0  0  0  0  0  0  0  0  0
  -35.1110    1.0470  -45.0500 C   0  0  0  0  0  0  0  0  0  0  0  0
  -37.5396    1.3553  -44.5508 C   0  0  0  0  0  0  0  0  0  0  0  0
  -35.8891    2.9952  -43.7867 N   0  0  0  0  0  0  0  0  0  0  0  0
  -36.9444    3.9997  -43.5943 C   0  0  0  0  0  0  0  0  0  0  0  0
  -36.5891    4.8863  -42.3984 C   0  0  0  0  0  0  0  0  0  0  0  0
  -35.2902    5.5305  -42.6382 N   0  0  0  0  0  0  0  0  0  0  0  0
  -34.2349    4.5259  -42.8307 C   0  0  0  0  0  0  0  0  0  0  0  0
  -34.5902    3.6393  -44.0266 C   0  0  0  0  0  0  0  0  0  0  0  0
  -34.9487    6.4499  -41.5446 C   0  0  0  0  0  0  0  0  0  0  0  0
  -35.8552    7.6856  -41.4560 C   0  0  0  0  0  0  0  0  0  0  0  0
  -34.6517    8.4829  -41.1542 N   0  0  0  0  0  0  0  0  0  0  0  0
  -33.8692    7.4825  -41.9038 C   0  0  0  0  0  0  0  0  0  0  0  0
  -34.6849    9.9795  -41.9805 X   0  0  0  0  0  0  0  0  0  0  0  0
  1  2  1  0  0  0  0
  2  3  1  0  0  0  0
  2  4  1  0  0  0  0
  2  5  1  0  0  0  0
  5  6  1  0  0  0  0
  5 10  1  0  0  0  0
  6  7  1  0  0  0  0
  7  8  1  0  0  0  0
  8  9  1  0  0  0  0
  8 11  1  0  0  0  0
  9 10  1  0  0  0  0
 11 12  1  0  0  0  0
 11 14  1  0  0  0  0
 12 13  1  0  0  0  0
 13 14  1  0  0  0  0
 13 15  1  0  0  0  0
M  END
> <Index>
24217

> <PropertyFieldDistance>
nan

$$$$
18057362
BBcorina  12272117083D 1   1.00000     0.00000 
CORINA 4.3.0 0026  30.10.2019
  9  9  0  0  0  0  0  0  0  0999 V2000
  -36.5919    8.0344  -41.6287 Br  0  0  0  0  0  0  0  0  0  0  0  0
  -35.1520    7.0011  -42.2881 C   0  0  0  0  0  0  0  0  0  0  0  0
  -35.3437    5.7480  -42.6229 C   0  0  0  0  0  0  0  0  0  0  0  0
  -36.7061    5.1010  -42.4861 C   0  0  0  0  0  0  0  0  0  0  0  0
  -37.0337    4.3889  -43.8035 C   0  0  0  0  0  0  0  0  0  0  0  0
  -35.9393    3.4726  -44.1479 N   0  0  0  0  0  0  0  0  0  0  0  0
  -34.6966    4.2000  -44.4346 C   0  0  0  0  0  0  0  0  0  0  0  0
  -34.2115    4.9010  -43.1655 C   0  0  0  0  0  0  0  0  0  0  0  0
  -36.3746    2.4631  -45.4577 X   0  0  0  0  0  0  0  0  0  0  0  0
  1  2  1  0  0  0  0
  2  3  2  0  0  0  0
  3  4  1  0  0  0  0
  3  8  1  0  0  0  0
  4  5  1  0  0  0  0
  5  6  1  0  0  0  0
  6  7  1  0  0  0  0
  6  9  1  0  0  0  0
  7  8  1  0  0  0  0
M  END
> <Index>
24221

> <PropertyFieldDistance>
nan

$$$$
17825918
BBcorina  12272117083D 1   1.00000     0.00000 
CORINA 4.3.0 0026  30.10.2019
 11 11  0  0  0  0  0  0  0  0999 V2000
  -37.3190    6.5206  -40.6936 O   0  0  0  0  0  0  0  0  0  0  0  0
  -37.5650    5.3159  -41.4216 C   0  0  0  0  0  0  0  0  0  0  0  0
  -36.6293    5.2502  -42.6304 C   0  0  0  0  0  0  0  0  0  0  0  0
  -36.9724    4.0212  -43.4763 C   0  0  0  0  0  0  0  0  0  0  0  0
  -36.0215    3.9203  -44.5930 N   0  0  0  0  0  0  0  0  0  0  0  0
  -34.6419    3.8204  -44.0951 C   0  0  0  0  0  0  0  0  0  0  0  0
  -34.3222    5.0515  -43.2430 C   0  0  0  0  0  0  0  0  0  0  0  0
  -32.9158    4.9155  -42.6561 C   0  0  0  0  0  0  0  0  0  0  0  0
  -32.5751    6.1121  -41.9534 O   0  0  0  0  0  0  0  0  0  0  0  0
  -35.2752    5.1506  -42.1812 O   0  0  0  0  0  0  0  0  0  0  0  0
  -36.4047    2.5974  -45.6065 X   0  0  0  0  0  0  0  0  0  0  0  0
  1  2  1  0  0  0  0
  2  3  1  0  0  0  0
  3  4  1  0  0  0  0
  3 10  1  0  0  0  0
  4  5  1  0  0  0  0
  5  6  1  0  0  0  0
  5 11  1  0  0  0  0
  6  7  1  0  0  0  0
  7  8  1  0  0  0  0
  7 10  1  0  0  0  0
  8  9  1  0  0  0  0
M  END
> <Index>
24237

> <PropertyFieldDistance>
nan

$$$$
17847956
BBcorina  12272117083D 1   1.00000     0.00000 
CORINA 4.3.0 0026  30.10.2019
 11 11  0  0  0  0  0  0  0  0999 V2000
  -33.9822    7.4234  -43.4195 C   0  0  0  0  0  0  0  0  0  0  0  0
  -34.3732    6.2191  -44.0820 O   0  0  0  0  0  0  0  0  0  0  0  0
  -34.2770    5.0495  -43.2665 C   0  0  0  0  0  0  0  0  0  0  0  0
  -35.2461    5.1676  -42.0871 C   0  0  0  0  0  0  0  0  0  0  0  0
  -36.6793    5.2476  -42.6202 C   0  0  0  0  0  0  0  0  0  0  0  0
  -36.9724    4.0087  -43.4695 C   0  0  0  0  0  0  0  0  0  0  0  0
  -36.0190    3.9415  -44.5844 N   0  0  0  0  0  0  0  0  0  0  0  0
  -34.6397    3.8164  -44.0971 C   0  0  0  0  0  0  0  0  0  0  0  0
  -32.9414    4.9189  -42.7754 O   0  0  0  0  0  0  0  0  0  0  0  0
  -31.9476    4.8654  -43.8009 C   0  0  0  0  0  0  0  0  0  0  0  0
  -36.4107    2.6622  -45.6494 X   0  0  0  0  0  0  0  0  0  0  0  0
  1  2  1  0  0  0  0
  2  3  1  0  0  0  0
  3  4  1  0  0  0  0
  3  8  1  0  0  0  0
  3  9  1  0  0  0  0
  4  5  1  0  0  0  0
  5  6  1  0  0  0  0
  6  7  1  0  0  0  0
  7  8  1  0  0  0  0
  7 11  1  0  0  0  0
  9 10  1  0  0  0  0
M  END
> <Index>
24259

> <PropertyFieldDistance>
nan

$$$$
17842020
BBcorina  12272117083D 1   1.00000     0.00000 
CORINA 4.3.0 0026  30.10.2019
 11 11  0  0  0  0  0  0  0  0999 V2000
  -33.7269    7.2790  -41.5921 O   0  0  0  0  0  0  0  0  0  0  0  0
  -34.9465    6.5601  -41.3980 C   0  0  0  0  0  0  0  0  0  0  0  0
  -35.3535    5.8830  -42.7083 C   0  0  0  0  0  0  0  0  0  0  0  0
  -36.6588    5.1098  -42.5008 C   0  0  0  0  0  0  0  0  0  0  0  0
  -37.0292    4.3868  -43.7978 C   0  0  0  0  0  0  0  0  0  0  0  0
  -35.9482    3.4662  -44.1723 N   0  0  0  0  0  0  0  0  0  0  0  0
  -34.6962    4.1913  -44.4228 C   0  0  0  0  0  0  0  0  0  0  0  0
  -34.2549    4.9096  -43.1439 C   0  0  0  0  0  0  0  0  0  0  0  0
  -35.5517    6.9288  -43.7751 C   0  0  0  0  0  0  0  0  0  0  0  0
  -35.3760    8.1956  -43.4913 C   0  0  0  0  0  0  0  0  0  0  0  0
  -36.3904    2.5207  -45.5269 X   0  0  0  0  0  0  0  0  0  0  0  0
  1  2  1  0  0  0  0
  2  3  1  0  0  0  0
  3  4  1  0  0  0  0
  3  8  1  0  0  0  0
  3  9  1  0  0  0  0
  4  5  1  0  0  0  0
  5  6  1  0  0  0  0
  6  7  1  0  0  0  0
  6 11  1  0  0  0  0
  7  8  1  0  0  0  0
  9 10  2  0  0  0  0
M  END
> <Index>
24261

> <PropertyFieldDistance>
nan

$$$$
17852554
BBcorina  12272117083D 1   1.00000     0.00000 
CORINA 4.3.0 0026  30.10.2019
 10 10  0  0  0  0  0  0  0  0999 V2000
  -34.3485    1.8307  -46.3464 Cl  0  0  0  0  0  0  0  0  0  0  0  0
  -36.1059    1.6538  -45.9847 C   0  0  0  0  0  0  0  0  0  0  0  0
  -36.3933    2.1751  -44.5752 C   0  0  0  0  0  0  0  0  0  0  0  0
  -36.0173    3.5927  -44.4913 N   0  0  0  0  0  0  0  0  0  0  0  0
  -36.5016    0.1768  -46.0754 C   0  0  0  0  0  0  0  0  0  0  0  0
  -36.2843   -0.3146  -47.5089 C   0  0  0  0  0  0  0  0  0  0  0  0
  -37.0489    0.4910  -48.4082 O   0  0  0  0  0  0  0  0  0  0  0  0
  -36.6901    1.8742  -48.4012 C   0  0  0  0  0  0  0  0  0  0  0  0
  -36.9219    2.4550  -47.0037 C   0  0  0  0  0  0  0  0  0  0  0  0
  -36.3231    4.2163  -42.9287 X   0  0  0  0  0  0  0  0  0  0  0  0
  1  2  1  0  0  0  0
  2  3  1  0  0  0  0
  2  5  1  0  0  0  0
  2  9  1  0  0  0  0
  3  4  1  0  0  0  0
  4 10  1  0  0  0  0
  5  6  1  0  0  0  0
  6  7  1  0  0  0  0
  7  8  1  0  0  0  0
  8  9  1  0  0  0  0
M  END
> <Index>
24263

> <PropertyFieldDistance>
nan

$$$$
17825964
BBcorina  12272117083D 1   1.00000     0.00000 
CORINA 4.3.0 0026  30.10.2019
 11 11  0  0  0  0  0  0  0  0999 V2000
  -37.3190    6.5206  -40.6936 O   0  0  0  0  0  0  0  0  0  0  0  0
  -37.5650    5.3159  -41.4216 C   0  0  0  0  0  0  0  0  0  0  0  0
  -36.6293    5.2502  -42.6304 C   0  0  0  0  0  0  0  0  0  0  0  0
  -36.9724    4.0212  -43.4763 C   0  0  0  0  0  0  0  0  0  0  0  0
  -36.0215    3.9203  -44.5930 N   0  0  0  0  0  0  0  0  0  0  0  0
  -34.6419    3.8204  -44.0951 C   0  0  0  0  0  0  0  0  0  0  0  0
  -34.3222    5.0515  -43.2430 C   0  0  0  0  0  0  0  0  0  0  0  0
  -32.9158    4.9155  -42.6561 C   0  0  0  0  0  0  0  0  0  0  0  0
  -32.5751    6.1121  -41.9534 O   0  0  0  0  0  0  0  0  0  0  0  0
  -35.2752    5.1506  -42.1812 O   0  0  0  0  0  0  0  0  0  0  0  0
  -36.4047    2.5974  -45.6065 X   0  0  0  0  0  0  0  0  0  0  0  0
  1  2  1  0  0  0  0
  2  3  1  0  0  0  0
  3  4  1  0  0  0  0
  3 10  1  0  0  0  0
  4  5  1  0  0  0  0
  5  6  1  0  0  0  0
  5 11  1  0  0  0  0
  6  7  1  0  0  0  0
  7  8  1  0  0  0  0
  7 10  1  0  0  0  0
  8  9  1  0  0  0  0
M  END
> <Index>
24275

> <PropertyFieldDistance>
nan

$$$$
18059592
BBcorina  12272117083D 1   1.00000     0.00000 
CORINA 4.3.0 0026  30.10.2019
 14 14  0  0  0  0  0  0  0  0999 V2000
  -34.4279    2.2371  -46.1130 C   0  0  0  0  0  0  0  0  0  0  0  0
  -35.9556    2.2428  -46.0287 C   0  0  0  0  0  0  0  0  0  0  0  0
  -36.4903    3.5770  -46.5533 C   0  0  0  0  0  0  0  0  0  0  0  0
  -36.5174    1.0996  -46.8762 C   0  0  0  0  0  0  0  0  0  0  0  0
  -36.1148    1.2724  -48.2364 O   0  0  0  0  0  0  0  0  0  0  0  0
  -36.3867    2.0578  -44.5725 C   0  0  0  0  0  0  0  0  0  0  0  0
  -35.9765    3.2298  -43.7876 N   0  0  0  0  0  0  0  0  0  0  0  0
  -37.0664    4.2098  -43.6964 C   0  0  0  0  0  0  0  0  0  0  0  0
  -36.6563    5.3448  -42.7554 C   0  0  0  0  0  0  0  0  0  0  0  0
  -35.3876    6.0131  -43.2922 C   0  0  0  0  0  0  0  0  0  0  0  0
  -34.2825    4.9613  -43.4234 C   0  0  0  0  0  0  0  0  0  0  0  0
  -34.7614    3.8375  -44.3451 C   0  0  0  0  0  0  0  0  0  0  0  0
  -34.9568    7.0664  -42.3632 N   0  0  0  0  0  0  0  0  0  0  0  0
  -34.5179    6.4055  -40.8484 X   0  0  0  0  0  0  0  0  0  0  0  0
  1  2  1  0  0  0  0
  2  3  1  0  0  0  0
  2  4  1  0  0  0  0
  2  6  1  0  0  0  0
  4  5  1  0  0  0  0
  6  7  1  0  0  0  0
  7  8  1  0  0  0  0
  7 12  1  0  0  0  0
  8  9  1  0  0  0  0
  9 10  1  0  0  0  0
 10 11  1  0  0  0  0
 10 13  1  0  0  0  0
 11 12  1  0  0  0  0
 13 14  1  0  0  0  0
M  END
> <Index>
24278

> <PropertyFieldDistance>
nan

$$$$
16784338
BBcorina  12272117083D 1   1.00000     0.00000 
CORINA 4.3.0 0026  30.10.2019
 11 12  0  0  0  0  0  0  0  0999 V2000
  -36.0087    3.6127  -44.3879 N   0  0  0  0  0  0  0  0  0  0  0  0
  -37.0095    4.4890  -43.7634 C   0  0  0  0  0  0  0  0  0  0  0  0
  -36.5702    4.8249  -42.3364 C   0  0  0  0  0  0  0  0  0  0  0  0
  -35.2534    5.4763  -42.3725 N   0  0  0  0  0  0  0  0  0  0  0  0
  -34.2525    4.5999  -42.9970 C   0  0  0  0  0  0  0  0  0  0  0  0
  -34.6919    4.2641  -44.4242 C   0  0  0  0  0  0  0  0  0  0  0  0
  -34.8301    5.8830  -41.0259 C   0  0  0  0  0  0  0  0  0  0  0  0
  -33.4125    6.4636  -40.9514 C   0  0  0  0  0  0  0  0  0  0  0  0
  -33.9043    7.4428  -40.0270 O   0  0  0  0  0  0  0  0  0  0  0  0
  -35.1889    7.3265  -40.6524 C   0  0  0  0  0  0  0  0  0  0  0  0
  -36.5014    3.1392  -45.9554 X   0  0  0  0  0  0  0  0  0  0  0  0
  1  2  1  0  0  0  0
  1  6  1  0  0  0  0
  1 11  1  0  0  0  0
  2  3  1  0  0  0  0
  3  4  1  0  0  0  0
  4  5  1  0  0  0  0
  4  7  1  0  0  0  0
  5  6  1  0  0  0  0
  7  8  1  0  0  0  0
  7 10  1  0  0  0  0
  8  9  1  0  0  0  0
  9 10  1  0  0  0  0
M  END
> <Index>
24290

> <PropertyFieldDistance>
nan

$$$$
11619736
BBcorina  12272117083D 1   1.00000     0.00000 
CORINA 4.3.0 0026  30.10.2019
 10 10  0  0  0  0  0  0  0  0999 V2000
  -38.3358    0.1050  -48.1286 F   0  0  0  0  0  0  0  0  0  0  0  0
  -36.9961    0.3468  -48.4510 C   0  0  0  0  0  0  0  0  0  0  0  0
  -36.0923   -0.3718  -47.4471 C   0  0  0  0  0  0  0  0  0  0  0  0
  -36.3798    0.1495  -46.0378 C   0  0  0  0  0  0  0  0  0  0  0  0
  -36.1059    1.6538  -45.9847 C   0  0  0  0  0  0  0  0  0  0  0  0
  -36.3933    2.1751  -44.5752 C   0  0  0  0  0  0  0  0  0  0  0  0
  -36.0173    3.5927  -44.4913 N   0  0  0  0  0  0  0  0  0  0  0  0
  -37.0096    2.3725  -46.9885 C   0  0  0  0  0  0  0  0  0  0  0  0
  -36.7222    1.8512  -48.3979 C   0  0  0  0  0  0  0  0  0  0  0  0
  -36.3231    4.2164  -42.9287 X   0  0  0  0  0  0  0  0  0  0  0  0
  1  2  1  0  0  0  0
  2  3  1  0  0  0  0
  2  9  1  0  0  0  0
  3  4  1  0  0  0  0
  4  5  1  0  0  0  0
  5  6  1  0  0  0  0
  5  8  1  0  0  0  0
  6  7  1  0  0  0  0
  7 10  1  0  0  0  0
  8  9  1  0  0  0  0
M  END
> <Index>
24294

> <PropertyFieldDistance>
nan

$$$$
11399504
BBcorina  12272117083D 1   1.00000     0.00000 
CORINA 4.3.0 0026  30.10.2019
 10 11  0  0  0  0  0  0  0  0999 V2000
  -36.0175    3.9543  -44.5798 N   0  0  0  0  0  0  0  0  0  0  0  0
  -36.9734    4.0010  -43.4661 C   0  0  0  0  0  0  0  0  0  0  0  0
  -36.7041    5.2467  -42.6154 C   0  0  0  0  0  0  0  0  0  0  0  0
  -35.2546    5.2191  -42.1379 C   0  0  0  0  0  0  0  0  0  0  0  0
  -34.9005    6.3538  -41.1673 C   0  0  0  0  0  0  0  0  0  0  0  0
  -35.2817    5.3631  -40.0498 C   0  0  0  0  0  0  0  0  0  0  0  0
  -35.0268    4.3333  -41.0279 O   0  0  0  0  0  0  0  0  0  0  0  0
  -34.2545    5.0490  -43.2783 C   0  0  0  0  0  0  0  0  0  0  0  0
  -34.6377    3.8125  -44.0982 C   0  0  0  0  0  0  0  0  0  0  0  0
  -36.4152    2.7043  -45.6768 X   0  0  0  0  0  0  0  0  0  0  0  0
  1  2  1  0  0  0  0
  1  9  1  0  0  0  0
  1 10  1  0  0  0  0
  2  3  1  0  0  0  0
  3  4  1  0  0  0  0
  4  5  1  0  0  0  0
  4  7  1  0  0  0  0
  4  8  1  0  0  0  0
  5  6  1  0  0  0  0
  6  7  1  0  0  0  0
  8  9  1  0  0  0  0
M  END
> <Index>
24298

> <PropertyFieldDistance>
nan

$$$$
17842384
BBcorina  12272117083D 1   1.00000     0.00000 
CORINA 4.3.0 0026  30.10.2019
 10 10  0  0  0  0  0  0  0  0999 V2000
  -34.8324    6.2744  -44.2825 N   0  0  0  0  0  0  0  0  0  0  0  0
  -34.1656    5.1817  -43.5618 C   0  0  0  0  0  0  0  0  0  0  0  0
  -34.5208    5.2522  -42.0729 C   0  0  0  0  0  0  0  0  0  0  0  0
  -35.8682    5.6595  -41.9057 O   0  0  0  0  0  0  0  0  0  0  0  0
  -36.9046    4.7815  -42.3096 C   0  0  0  0  0  0  0  0  0  0  0  0
  -36.9264    4.6422  -43.8394 C   0  0  0  0  0  0  0  0  0  0  0  0
  -35.9508    3.6088  -44.2235 N   0  0  0  0  0  0  0  0  0  0  0  0
  -34.6399    3.8493  -44.1034 C   0  0  0  0  0  0  0  0  0  0  0  0
  -33.8340    3.0026  -44.4270 O   0  0  0  0  0  0  0  0  0  0  0  0
  -33.9256    7.7205  -44.1780 X   0  0  0  0  0  0  0  0  0  0  0  0
  1  2  1  0  0  0  0
  1 10  1  0  0  0  0
  2  3  1  0  0  0  0
  2  8  1  0  0  0  0
  3  4  1  0  0  0  0
  4  5  1  0  0  0  0
  5  6  1  0  0  0  0
  6  7  1  0  0  0  0
  7  8  1  0  0  0  0
  8  9  2  0  0  0  0
M  END
> <Index>
24303

> <PropertyFieldDistance>
nan

$$$$
18239252
BBcorina  12272117083D 1   1.00000     0.00000 
CORINA 4.3.0 0026  30.10.2019
 10 10  0  0  0  0  0  0  0  0999 V2000
  -35.9553    3.4600  -44.1936 N   0  0  0  0  0  0  0  0  0  0  0  0
  -37.0251    4.3875  -43.7946 C   0  0  0  0  0  0  0  0  0  0  0  0
  -36.6101    5.1171  -42.5142 C   0  0  0  0  0  0  0  0  0  0  0  0
  -35.3667    5.7881  -42.7355 O   0  0  0  0  0  0  0  0  0  0  0  0
  -34.3026    4.9153  -43.1244 C   0  0  0  0  0  0  0  0  0  0  0  0
  -33.0334    5.7341  -43.3683 C   0  0  0  0  0  0  0  0  0  0  0  0
  -32.5900    6.3408  -42.1025 C   0  0  0  0  0  0  0  0  0  0  0  0
  -32.2365    6.8246  -41.0930 C   0  0  0  0  0  0  0  0  0  0  0  0
  -34.6942    4.1837  -44.4109 C   0  0  0  0  0  0  0  0  0  0  0  0
  -36.3998    2.5717  -45.5855 X   0  0  0  0  0  0  0  0  0  0  0  0
  1  2  1  0  0  0  0
  1  9  1  0  0  0  0
  1 10  1  0  0  0  0
  2  3  1  0  0  0  0
  3  4  1  0  0  0  0
  4  5  1  0  0  0  0
  5  6  1  0  0  0  0
  5  9  1  0  0  0  0
  6  7  1  0  0  0  0
  7  8  3  0  0  0  0
M  END
> <Index>
24313

> <PropertyFieldDistance>
nan

$$$$
18238484
BBcorina  12272117083D 1   1.00000     0.00000 
CORINA 4.3.0 0026  30.10.2019
 12 13  0  0  0  0  0  0  0  0999 V2000
  -38.6947    3.4436  -45.2477 N   0  0  0  0  0  0  0  0  0  0  0  0
  -38.3774    4.4252  -44.2018 C   0  0  0  0  0  0  0  0  0  0  0  0
  -37.0413    4.0626  -43.5505 C   0  0  0  0  0  0  0  0  0  0  0  0
  -36.0027    3.9537  -44.5837 N   0  0  0  0  0  0  0  0  0  0  0  0
  -34.6706    3.7839  -43.9859 C   0  0  0  0  0  0  0  0  0  0  0  0
  -34.2343    5.1089  -43.3488 C   0  0  0  0  0  0  0  0  0  0  0  0
  -35.3737    5.6163  -42.4903 C   0  0  0  0  0  0  0  0  0  0  0  0
  -35.2645    6.8655  -41.2621 S   0  0  0  0  0  0  0  0  0  0  0  0
  -36.9770    6.7040  -40.8994 C   0  0  0  0  0  0  0  0  0  0  0  0
  -37.5122    5.7690  -41.6794 C   0  0  0  0  0  0  0  0  0  0  0  0
  -36.6384    5.1545  -42.5688 C   0  0  0  0  0  0  0  0  0  0  0  0
  -40.1838    3.8125  -46.0030 X   0  0  0  0  0  0  0  0  0  0  0  0
  1  2  1  0  0  0  0
  1 12  1  0  0  0  0
  2  3  1  0  0  0  0
  3  4  1  0  0  0  0
  3 11  1  0  0  0  0
  4  5  1  0  0  0  0
  5  6  1  0  0  0  0
  6  7  1  0  0  0  0
  7  8  1  0  0  0  0
  7 11  2  0  0  0  0
  8  9  1  0  0  0  0
  9 10  2  0  0  0  0
 10 11  1  0  0  0  0
M  END
> <Index>
24318

> <PropertyFieldDistance>
nan

$$$$
18182928
BBcorina  12272117083D 1   1.00000     0.00000 
CORINA 4.3.0 0026  30.10.2019
  9 10  0  0  0  0  0  0  0  0999 V2000
  -35.9472    3.8353  -44.7057 N   0  0  0  0  0  0  0  0  0  0  0  0
  -36.9476    4.2524  -43.6963 C   0  0  0  0  0  0  0  0  0  0  0  0
  -36.0151    3.5857  -42.6772 C   0  0  0  0  0  0  0  0  0  0  0  0
  -35.8826    4.3300  -41.3572 C   0  0  0  0  0  0  0  0  0  0  0  0
  -35.4850    5.6802  -41.6082 O   0  0  0  0  0  0  0  0  0  0  0  0
  -34.1948    5.7806  -42.2051 C   0  0  0  0  0  0  0  0  0  0  0  0
  -34.1898    5.1792  -43.5981 C   0  0  0  0  0  0  0  0  0  0  0  0
  -34.8814    3.8420  -43.6704 C   0  0  0  0  0  0  0  0  0  0  0  0
  -35.6887    5.0708  -45.8592 X   0  0  0  0  0  0  0  0  0  0  0  0
  1  2  1  0  0  0  0
  1  8  1  0  0  0  0
  1  9  1  0  0  0  0
  2  3  1  0  0  0  0
  3  4  1  0  0  0  0
  3  8  1  0  0  0  0
  4  5  1  0  0  0  0
  5  6  1  0  0  0  0
  6  7  1  0  0  0  0
  7  8  1  0  0  0  0
M  END
> <Index>
24319

> <PropertyFieldDistance>
nan

$$$$
18182962
BBcorina  12272117083D 1   1.00000     0.00000 
CORINA 4.3.0 0026  30.10.2019
 14 15  0  0  0  0  0  0  0  0999 V2000
  -35.6146    8.9011  -40.5780 O   0  0  0  0  0  0  0  0  0  0  0  0
  -36.0142    8.0316  -41.6393 C   0  0  0  0  0  0  0  0  0  0  0  0
  -34.9556    6.9442  -41.8337 C   0  0  0  0  0  0  0  0  0  0  0  0
  -35.3833    6.0133  -42.9700 C   0  0  0  0  0  0  0  0  0  0  0  0
  -36.6554    5.2624  -42.5667 C   0  0  0  0  0  0  0  0  0  0  0  0
  -37.0432    4.2897  -43.6827 C   0  0  0  0  0  0  0  0  0  0  0  0
  -35.9453    3.3417  -43.9110 N   0  0  0  0  0  0  0  0  0  0  0  0
  -34.7262    4.0356  -44.3451 C   0  0  0  0  0  0  0  0  0  0  0  0
  -34.2692    5.0007  -43.2489 C   0  0  0  0  0  0  0  0  0  0  0  0
  -36.3354    2.3075  -44.8787 C   0  0  0  0  0  0  0  0  0  0  0  0
  -35.1910    1.3501  -45.2573 C   0  0  0  0  0  0  0  0  0  0  0  0
  -36.1968    0.2691  -45.1629 N   0  0  0  0  0  0  0  0  0  0  0  0
  -37.0147    1.0840  -44.2377 C   0  0  0  0  0  0  0  0  0  0  0  0
  -35.5518   -1.1001  -44.3670 X   0  0  0  0  0  0  0  0  0  0  0  0
  1  2  1  0  0  0  0
  2  3  1  0  0  0  0
  3  4  1  0  0  0  0
  4  5  1  0  0  0  0
  4  9  1  0  0  0  0
  5  6  1  0  0  0  0
  6  7  1  0  0  0  0
  7  8  1  0  0  0  0
  7 10  1  0  0  0  0
  8  9  1  0  0  0  0
 10 11  1  0  0  0  0
 10 13  1  0  0  0  0
 11 12  1  0  0  0  0
 12 13  1  0  0  0  0
 12 14  1  0  0  0  0
M  END
> <Index>
24320

> <PropertyFieldDistance>
nan

$$$$
8283704
BBcorina  12272117083D 1   1.00000     0.00000 
CORINA 4.3.0 0026  30.10.2019
 10 10  0  0  0  0  0  0  0  0999 V2000
  -36.1585    2.3741  -43.9464 C   0  0  0  0  0  0  0  0  0  0  0  0
  -36.0636    3.6913  -44.5896 N   0  0  0  0  0  0  0  0  0  0  0  0
  -36.9925    4.6501  -43.9683 C   0  0  0  0  0  0  0  0  0  0  0  0
  -36.7196    4.6835  -42.4624 C   0  0  0  0  0  0  0  0  0  0  0  0
  -35.2456    4.8466  -42.2176 C   0  0  0  0  0  0  0  0  0  0  0  0
  -34.3508    4.6318  -43.1334 C   0  0  0  0  0  0  0  0  0  0  0  0
  -34.6898    4.2068  -44.5329 C   0  0  0  0  0  0  0  0  0  0  0  0
  -34.7865    5.2848  -40.8508 C   0  0  0  0  0  0  0  0  0  0  0  0
  -34.8324    6.7506  -40.7653 N   0  0  0  0  0  0  0  0  0  0  0  0
  -34.3181    7.2912  -39.2268 X   0  0  0  0  0  0  0  0  0  0  0  0
  1  2  1  0  0  0  0
  2  3  1  0  0  0  0
  2  7  1  0  0  0  0
  3  4  1  0  0  0  0
  4  5  1  0  0  0  0
  5  6  2  0  0  0  0
  5  8  1  0  0  0  0
  6  7  1  0  0  0  0
  8  9  1  0  0  0  0
  9 10  1  0  0  0  0
M  END
> <Index>
24381

> <PropertyFieldDistance>
nan

$$$$
12302336
BBcorina  12272117083D 1   1.00000     0.00000 
CORINA 4.3.0 0026  30.10.2019
 10 10  0  0  0  0  0  0  0  0999 V2000
  -36.3427    2.3152  -44.9018 C   0  0  0  0  0  0  0  0  0  0  0  0
  -35.9484    3.3238  -43.9092 N   0  0  0  0  0  0  0  0  0  0  0  0
  -37.0377    4.2819  -43.6704 C   0  0  0  0  0  0  0  0  0  0  0  0
  -36.6072    5.2766  -42.5892 C   0  0  0  0  0  0  0  0  0  0  0  0
  -35.3979    5.9222  -42.9966 O   0  0  0  0  0  0  0  0  0  0  0  0
  -34.3158    5.0187  -43.2373 C   0  0  0  0  0  0  0  0  0  0  0  0
  -34.7230    4.0215  -44.3252 C   0  0  0  0  0  0  0  0  0  0  0  0
  -33.5996    3.0035  -44.5315 C   0  0  0  0  0  0  0  0  0  0  0  0
  -32.4005    3.6915  -45.0282 N   0  0  0  0  0  0  0  0  0  0  0  0
  -31.1600    2.5732  -45.3951 X   0  0  0  0  0  0  0  0  0  0  0  0
  1  2  1  0  0  0  0
  2  3  1  0  0  0  0
  2  7  1  0  0  0  0
  3  4  1  0  0  0  0
  4  5  1  0  0  0  0
  5  6  1  0  0  0  0
  6  7  1  0  0  0  0
  7  8  1  0  0  0  0
  8  9  1  0  0  0  0
  9 10  1  0  0  0  0
M  END
> <Index>
24384

> <PropertyFieldDistance>
nan

$$$$
7944318
BBcorina  12272117083D 1   1.00000     0.00000 
CORINA 4.3.0 0026  30.10.2019
  8  8  0  0  0  0  0  0  0  0999 V2000
  -35.5602    1.3651  -42.7160 C   0  0  0  0  0  0  0  0  0  0  0  0
  -35.5810    2.8950  -42.7076 C   0  0  0  0  0  0  0  0  0  0  0  0
  -34.2360    3.4021  -42.7177 O   0  0  0  0  0  0  0  0  0  0  0  0
  -34.2525    4.6254  -43.4844 C   0  0  0  0  0  0  0  0  0  0  0  0
  -35.2052    4.3005  -44.6631 C   0  0  0  0  0  0  0  0  0  0  0  0
  -36.2768    3.4166  -43.9797 C   0  0  0  0  0  0  0  0  0  0  0  0
  -36.6549    2.2984  -44.8542 N   0  0  0  0  0  0  0  0  0  0  0  0
  -38.0532    2.6767  -45.7628 X   0  0  0  0  0  0  0  0  0  0  0  0
  1  2  1  0  0  0  0
  2  3  1  0  0  0  0
  2  6  1  0  0  0  0
  3  4  1  0  0  0  0
  4  5  1  0  0  0  0
  5  6  1  0  0  0  0
  6  7  1  0  0  0  0
  7  8  1  0  0  0  0
M  END
> <Index>
24391

> <PropertyFieldDistance>
nan

$$$$
10966922
BBcorina  12272117083D 1   1.00000     0.00000 
CORINA 4.3.0 0026  30.10.2019
  8  8  0  0  0  0  0  0  0  0999 V2000
  -36.5586    3.2879  -41.3838 C   0  0  0  0  0  0  0  0  0  0  0  0
  -35.7767    2.7643  -42.5902 C   0  0  0  0  0  0  0  0  0  0  0  0
  -36.3639    3.3111  -43.9077 C   0  0  0  0  0  0  0  0  0  0  0  0
  -35.2898    3.6249  -44.9413 C   0  0  0  0  0  0  0  0  0  0  0  0
  -33.8670    3.3222  -44.4278 C   0  0  0  0  0  0  0  0  0  0  0  0
  -34.0660    3.4405  -42.6029 S   0  0  0  0  0  0  0  0  0  0  0  0
  -35.5409    2.8226  -46.1459 N   0  0  0  0  0  0  0  0  0  0  0  0
  -35.4830    1.1507  -45.7917 X   0  0  0  0  0  0  0  0  0  0  0  0
  1  2  1  0  0  0  0
  2  3  1  0  0  0  0
  2  6  1  0  0  0  0
  3  4  1  0  0  0  0
  4  5  1  0  0  0  0
  4  7  1  0  0  0  0
  5  6  1  0  0  0  0
  7  8  1  0  0  0  0
M  END
> <Index>
24392

> <PropertyFieldDistance>
nan

$$$$
10125932
BBcorina  12272117083D 1   1.00000     0.00000 
CORINA 4.3.0 0026  30.10.2019
  8  8  0  0  0  0  0  0  0  0999 V2000
  -35.9601    1.5526  -44.8035 C   0  0  0  0  0  0  0  0  0  0  0  0
  -35.8088    2.4474  -43.5716 C   0  0  0  0  0  0  0  0  0  0  0  0
  -37.2068    2.8226  -43.0545 C   0  0  0  0  0  0  0  0  0  0  0  0
  -37.2317    4.6564  -43.0444 S   0  0  0  0  0  0  0  0  0  0  0  0
  -35.4042    4.8689  -43.0607 C   0  0  0  0  0  0  0  0  0  0  0  0
  -34.9775    3.6732  -43.9527 C   0  0  0  0  0  0  0  0  0  0  0  0
  -33.5520    3.3864  -43.7437 N   0  0  0  0  0  0  0  0  0  0  0  0
  -32.5820    4.2688  -44.8412 X   0  0  0  0  0  0  0  0  0  0  0  0
  1  2  1  0  0  0  0
  2  3  1  0  0  0  0
  2  6  1  0  0  0  0
  3  4  1  0  0  0  0
  4  5  1  0  0  0  0
  5  6  1  0  0  0  0
  6  7  1  0  0  0  0
  7  8  1  0  0  0  0
M  END
> <Index>
24393

> <PropertyFieldDistance>
nan

$$$$
11619830
BBcorina  12272117083D 1   1.00000     0.00000 
CORINA 4.3.0 0026  30.10.2019
  8  8  0  0  0  0  0  0  0  0999 V2000
  -37.4820    4.0311  -44.9227 C   0  0  0  0  0  0  0  0  0  0  0  0
  -36.7562    3.5138  -43.6791 C   0  0  0  0  0  0  0  0  0  0  0  0
  -35.2913    3.9919  -43.6905 C   0  0  0  0  0  0  0  0  0  0  0  0
  -34.4648    2.6834  -43.6523 C   0  0  0  0  0  0  0  0  0  0  0  0
  -35.4896    1.6686  -43.0846 C   0  0  0  0  0  0  0  0  0  0  0  0
  -36.7367    2.0765  -43.6870 O   0  0  0  0  0  0  0  0  0  0  0  0
  -33.3095    2.8191  -42.7552 N   0  0  0  0  0  0  0  0  0  0  0  0
  -32.0701    1.7209  -43.1817 X   0  0  0  0  0  0  0  0  0  0  0  0
  1  2  1  0  0  0  0
  2  3  1  0  0  0  0
  2  6  1  0  0  0  0
  3  4  1  0  0  0  0
  4  5  1  0  0  0  0
  4  7  1  0  0  0  0
  5  6  1  0  0  0  0
  7  8  1  0  0  0  0
M  END
> <Index>
24394

> <PropertyFieldDistance>
nan

$$$$
15782076
BBcorina  12272117083D 1   1.00000     0.00000 
CORINA 4.3.0 0026  30.10.2019
 10 10  0  0  0  0  0  0  0  0999 V2000
  -36.2813    0.2261  -46.1196 C   0  0  0  0  0  0  0  0  0  0  0  0
  -35.7643    1.6391  -45.8420 C   0  0  0  0  0  0  0  0  0  0  0  0
  -36.5974    2.2776  -44.7288 C   0  0  0  0  0  0  0  0  0  0  0  0
  -36.1803    3.6739  -44.5443 N   0  0  0  0  0  0  0  0  0  0  0  0
  -37.1113    4.3902  -43.6533 C   0  0  0  0  0  0  0  0  0  0  0  0
  -36.2803    4.9534  -42.4812 C   0  0  0  0  0  0  0  0  0  0  0  0
  -34.8447    5.0109  -43.0666 C   0  0  0  0  0  0  0  0  0  0  0  0
  -34.8223    3.7491  -43.9648 C   0  0  0  0  0  0  0  0  0  0  0  0
  -35.8748    2.4495  -47.0623 N   0  0  0  0  0  0  0  0  0  0  0  0
  -37.4999    2.5529  -47.5842 X   0  0  0  0  0  0  0  0  0  0  0  0
  1  2  1  0  0  0  0
  2  3  1  0  0  0  0
  2  9  1  0  0  0  0
  3  4  1  0  0  0  0
  4  5  1  0  0  0  0
  4  8  1  0  0  0  0
  5  6  1  0  0  0  0
  6  7  1  0  0  0  0
  7  8  1  0  0  0  0
  9 10  1  0  0  0  0
M  END
> <Index>
24410

> <PropertyFieldDistance>
nan

$$$$
13159600
BBcorina  12272117083D 1   1.00000     0.00000 
CORINA 4.3.0 0026  30.10.2019
  9  9  0  0  0  0  0  0  0  0999 V2000
  -38.2009    4.8736  -44.3358 C   0  0  0  0  0  0  0  0  0  0  0  0
  -37.0929    4.1701  -43.5495 C   0  0  0  0  0  0  0  0  0  0  0  0
  -36.3900    5.1759  -42.6191 C   0  0  0  0  0  0  0  0  0  0  0  0
  -34.9082    5.1660  -43.0597 C   0  0  0  0  0  0  0  0  0  0  0  0
  -34.7685    3.7987  -43.7751 C   0  0  0  0  0  0  0  0  0  0  0  0
  -36.0675    3.6496  -44.4797 N   0  0  0  0  0  0  0  0  0  0  0  0
  -36.3262    2.2430  -44.8150 C   0  0  0  0  0  0  0  0  0  0  0  0
  -36.9635    6.5176  -42.7893 N   0  0  0  0  0  0  0  0  0  0  0  0
  -36.6724    7.4876  -41.4114 X   0  0  0  0  0  0  0  0  0  0  0  0
  1  2  1  0  0  0  0
  2  3  1  0  0  0  0
  2  6  1  0  0  0  0
  3  4  1  0  0  0  0
  3  8  1  0  0  0  0
  4  5  1  0  0  0  0
  5  6  1  0  0  0  0
  6  7  1  0  0  0  0
  8  9  1  0  0  0  0
M  END
> <Index>
24415

> <PropertyFieldDistance>
nan

$$$$
11973824
BBcorina  12272117083D 1   1.00000     0.00000 
CORINA 4.3.0 0026  30.10.2019
 10 10  0  0  0  0  0  0  0  0999 V2000
  -35.9432    2.0110  -41.8922 C   0  0  0  0  0  0  0  0  0  0  0  0
  -36.6832    2.5178  -43.1317 C   0  0  0  0  0  0  0  0  0  0  0  0
  -35.9671    2.0244  -44.3905 C   0  0  0  0  0  0  0  0  0  0  0  0
  -34.5317    2.5540  -44.4013 C   0  0  0  0  0  0  0  0  0  0  0  0
  -34.5525    4.0838  -44.3929 C   0  0  0  0  0  0  0  0  0  0  0  0
  -35.2686    4.5772  -43.1341 C   0  0  0  0  0  0  0  0  0  0  0  0
  -36.7040    4.0477  -43.1233 C   0  0  0  0  0  0  0  0  0  0  0  0
  -37.3951    4.5210  -44.2810 O   0  0  0  0  0  0  0  0  0  0  0  0
  -33.8441    2.0802  -45.6100 N   0  0  0  0  0  0  0  0  0  0  0  0
  -34.6404    2.6256  -47.0216 X   0  0  0  0  0  0  0  0  0  0  0  0
  1  2  1  0  0  0  0
  2  3  1  0  0  0  0
  2  7  1  0  0  0  0
  3  4  1  0  0  0  0
  4  5  1  0  0  0  0
  4  9  1  0  0  0  0
  5  6  1  0  0  0  0
  6  7  1  0  0  0  0
  7  8  1  0  0  0  0
  9 10  1  0  0  0  0
M  END
> <Index>
24416

> <PropertyFieldDistance>
nan

$$$$
10157162
BBcorina  12272117083D 1   1.00000     0.00000 
CORINA 4.3.0 0026  30.10.2019
 11 12  0  0  0  0  0  0  0  0999 V2000
  -38.9179    2.5236  -46.1004 N   0  0  0  0  0  0  0  0  0  0  0  0
  -37.9361    3.1066  -45.2907 C   0  0  0  0  0  0  0  0  0  0  0  0
  -38.1684    3.9238  -44.1704 C   0  0  0  0  0  0  0  0  0  0  0  0
  -36.9710    4.2767  -43.6642 C   0  0  0  0  0  0  0  0  0  0  0  0
  -36.6985    5.1418  -42.4582 C   0  0  0  0  0  0  0  0  0  0  0  0
  -35.2357    4.9373  -42.0429 C   0  0  0  0  0  0  0  0  0  0  0  0
  -34.3393    5.0649  -43.2782 C   0  0  0  0  0  0  0  0  0  0  0  0
  -34.5691    3.8662  -44.2047 C   0  0  0  0  0  0  0  0  0  0  0  0
  -36.0094    3.7140  -44.4324 N   0  0  0  0  0  0  0  0  0  0  0  0
  -36.6368    2.9876  -45.4468 N   0  0  0  0  0  0  0  0  0  0  0  0
  -38.4621    1.5515  -47.4313 X   0  0  0  0  0  0  0  0  0  0  0  0
  1  2  1  0  0  0  0
  1 11  1  0  0  0  0
  2  3  1  0  0  0  0
  2 10  2  0  0  0  0
  3  4  2  0  0  0  0
  4  5  1  0  0  0  0
  4  9  1  0  0  0  0
  5  6  1  0  0  0  0
  6  7  1  0  0  0  0
  7  8  1  0  0  0  0
  8  9  1  0  0  0  0
  9 10  1  0  0  0  0
M  END
> <Index>
24418

> <PropertyFieldDistance>
nan

$$$$
17832934
BBcorina  12272117083D 1   1.00000     0.00000 
CORINA 4.3.0 0026  30.10.2019
 13 14  0  0  0  0  0  0  0  0999 V2000
  -34.5657    4.3744  -41.4468 N   0  0  0  0  0  0  0  0  0  0  0  0
  -34.9115    4.9103  -42.7701 C   0  0  0  0  0  0  0  0  0  0  0  0
  -36.3943    5.3474  -42.8065 C   0  0  0  0  0  0  0  0  0  0  0  0
  -37.0813    4.0841  -43.3711 C   0  0  0  0  0  0  0  0  0  0  0  0
  -36.0464    3.3884  -44.1448 N   0  0  0  0  0  0  0  0  0  0  0  0
  -34.8173    3.8246  -43.8195 C   0  0  0  0  0  0  0  0  0  0  0  0
  -33.7833    3.4099  -44.2992 O   0  0  0  0  0  0  0  0  0  0  0  0
  -36.3059    2.3927  -45.0966 C   0  0  0  0  0  0  0  0  0  0  0  0
  -37.5751    1.9765  -45.5296 C   0  0  0  0  0  0  0  0  0  0  0  0
  -37.4002    1.0003  -46.4491 C   0  0  0  0  0  0  0  0  0  0  0  0
  -36.0731    0.8027  -46.5959 N   0  0  0  0  0  0  0  0  0  0  0  0
  -35.4053    1.6864  -45.7384 N   0  0  0  0  0  0  0  0  0  0  0  0
  -35.5315    3.0161  -41.0643 X   0  0  0  0  0  0  0  0  0  0  0  0
  1  2  1  0  0  0  0
  1 13  1  0  0  0  0
  2  3  1  0  0  0  0
  2  6  1  0  0  0  0
  3  4  1  0  0  0  0
  4  5  1  0  0  0  0
  5  6  1  0  0  0  0
  5  8  1  0  0  0  0
  6  7  2  0  0  0  0
  8  9  1  0  0  0  0
  8 12  2  0  0  0  0
  9 10  2  0  0  0  0
 10 11  1  0  0  0  0
 11 12  1  0  0  0  0
M  END
> <Index>
24424

> <PropertyFieldDistance>
nan

$$$$
16919924
BBcorina  12272117083D 1   1.00000     0.00000 
CORINA 4.3.0 0026  30.10.2019
 13 13  0  0  0  0  0  0  0  0999 V2000
  -38.2824    2.3955  -46.6615 C   0  0  0  0  0  0  0  0  0  0  0  0
  -36.8793    2.3923  -46.9326 O   0  0  0  0  0  0  0  0  0  0  0  0
  -36.1059    1.6538  -45.9847 C   0  0  0  0  0  0  0  0  0  0  0  0
  -36.3933    2.1751  -44.5752 C   0  0  0  0  0  0  0  0  0  0  0  0
  -36.0173    3.5927  -44.4913 N   0  0  0  0  0  0  0  0  0  0  0  0
  -34.6181    1.8237  -46.2976 C   0  0  0  0  0  0  0  0  0  0  0  0
  -34.4568    2.5787  -47.6184 C   0  0  0  0  0  0  0  0  0  0  0  0
  -35.4402    2.0197  -48.6486 C   0  0  0  0  0  0  0  0  0  0  0  0
  -34.9252    0.6758  -49.1683 C   0  0  0  0  0  0  0  0  0  0  0  0
  -35.1668   -0.4052  -48.1129 C   0  0  0  0  0  0  0  0  0  0  0  0
  -36.5742   -0.2488  -47.5342 C   0  0  0  0  0  0  0  0  0  0  0  0
  -36.4784    0.1720  -46.0662 C   0  0  0  0  0  0  0  0  0  0  0  0
  -36.1884    4.1785  -42.8939 X   0  0  0  0  0  0  0  0  0  0  0  0
  1  2  1  0  0  0  0
  2  3  1  0  0  0  0
  3  4  1  0  0  0  0
  3  6  1  0  0  0  0
  3 12  1  0  0  0  0
  4  5  1  0  0  0  0
  5 13  1  0  0  0  0
  6  7  1  0  0  0  0
  7  8  1  0  0  0  0
  8  9  1  0  0  0  0
  9 10  1  0  0  0  0
 10 11  1  0  0  0  0
 11 12  1  0  0  0  0
M  END
> <Index>
24440

> <PropertyFieldDistance>
nan

$$$$
18184302
BBcorina  12272117083D 1   1.00000     0.00000 
CORINA 4.3.0 0026  30.10.2019
 10 10  0  0  0  0  0  0  0  0999 V2000
  -36.3219    2.2737  -44.8889 C   0  0  0  0  0  0  0  0  0  0  0  0
  -36.0777    3.6554  -44.4538 N   0  0  0  0  0  0  0  0  0  0  0  0
  -37.0720    4.0757  -43.4331 C   0  0  0  0  0  0  0  0  0  0  0  0
  -36.4036    5.2610  -42.7039 C   0  0  0  0  0  0  0  0  0  0  0  0
  -34.8892    5.0608  -42.9181 C   0  0  0  0  0  0  0  0  0  0  0  0
  -34.2982    6.2499  -43.6782 C   0  0  0  0  0  0  0  0  0  0  0  0
  -34.1809    4.8859  -41.5733 C   0  0  0  0  0  0  0  0  0  0  0  0
  -32.7416    4.6969  -41.7988 N   0  0  0  0  0  0  0  0  0  0  0  0
  -34.7699    3.7714  -43.7587 C   0  0  0  0  0  0  0  0  0  0  0  0
  -31.9103    4.4970  -40.3179 X   0  0  0  0  0  0  0  0  0  0  0  0
  1  2  1  0  0  0  0
  2  3  1  0  0  0  0
  2  9  1  0  0  0  0
  3  4  1  0  0  0  0
  4  5  1  0  0  0  0
  5  6  1  0  0  0  0
  5  7  1  0  0  0  0
  5  9  1  0  0  0  0
  7  8  1  0  0  0  0
  8 10  1  0  0  0  0
M  END
> <Index>
24458

> <PropertyFieldDistance>
nan

$$$$
9047870
BBcorina  12272117083D 1   1.00000     0.00000 
CORINA 4.3.0 0026  30.10.2019
 16 16  0  0  0  0  0  0  0  0999 V2000
  -36.7930    3.1803  -41.7584 C   0  0  0  0  0  0  0  0  0  0  0  0
  -36.9669    3.9021  -43.0962 C   0  0  0  0  0  0  0  0  0  0  0  0
  -36.7431    5.4051  -42.9019 C   0  0  0  0  0  0  0  0  0  0  0  0
  -35.2877    5.6520  -42.4980 C   0  0  0  0  0  0  0  0  0  0  0  0
  -34.3578    5.1652  -43.6117 C   0  0  0  0  0  0  0  0  0  0  0  0
  -34.5547    3.6596  -43.8141 C   0  0  0  0  0  0  0  0  0  0  0  0
  -35.9793    3.3976  -44.0600 N   0  0  0  0  0  0  0  0  0  0  0  0
  -36.3728    2.7082  -45.1492 C   0  0  0  0  0  0  0  0  0  0  0  0
  -37.5541    2.4982  -45.3413 O   0  0  0  0  0  0  0  0  0  0  0  0
  -35.4569    2.2521  -46.0244 O   0  0  0  0  0  0  0  0  0  0  0  0
  -35.9528    1.5177  -47.1745 C   0  0  0  0  0  0  0  0  0  0  0  0
  -36.8879    2.4147  -47.9881 C   0  0  0  0  0  0  0  0  0  0  0  0
  -34.7747    1.0831  -48.0487 C   0  0  0  0  0  0  0  0  0  0  0  0
  -36.7183    0.2812  -46.6989 C   0  0  0  0  0  0  0  0  0  0  0  0
  -37.6364    5.9014  -41.8466 N   0  0  0  0  0  0  0  0  0  0  0  0
  -37.1634    5.3083  -40.3141 X   0  0  0  0  0  0  0  0  0  0  0  0
  1  2  1  0  0  0  0
  2  3  1  0  0  0  0
  2  7  1  0  0  0  0
  3  4  1  0  0  0  0
  3 15  1  0  0  0  0
  4  5  1  0  0  0  0
  5  6  1  0  0  0  0
  6  7  1  0  0  0  0
  7  8  1  0  0  0  0
  8  9  2  0  0  0  0
  8 10  1  0  0  0  0
 10 11  1  0  0  0  0
 11 12  1  0  0  0  0
 11 13  1  0  0  0  0
 11 14  1  0  0  0  0
 15 16  1  0  0  0  0
M  END
> <Index>
24464

> <PropertyFieldDistance>
nan

$$$$
11972920
BBcorina  12272117083D 1   1.00000     0.00000 
CORINA 4.3.0 0026  30.10.2019
 11 12  0  0  0  0  0  0  0  0999 V2000
  -35.9480    3.4664  -44.1723 N   0  0  0  0  0  0  0  0  0  0  0  0
  -37.0290    4.3869  -43.7977 C   0  0  0  0  0  0  0  0  0  0  0  0
  -36.6587    5.1099  -42.5007 C   0  0  0  0  0  0  0  0  0  0  0  0
  -35.3532    5.8831  -42.7070 C   0  0  0  0  0  0  0  0  0  0  0  0
  -34.2558    4.9088  -43.1443 C   0  0  0  0  0  0  0  0  0  0  0  0
  -34.6958    4.1917  -44.4226 C   0  0  0  0  0  0  0  0  0  0  0  0
  -34.9460    6.5579  -41.3957 C   0  0  0  0  0  0  0  0  0  0  0  0
  -33.6605    7.3946  -41.5067 C   0  0  0  0  0  0  0  0  0  0  0  0
  -34.3511    8.4315  -40.6051 C   0  0  0  0  0  0  0  0  0  0  0  0
  -35.6898    7.8763  -41.1245 C   0  0  0  0  0  0  0  0  0  0  0  0
  -36.3899    2.5211  -45.5270 X   0  0  0  0  0  0  0  0  0  0  0  0
  1  2  1  0  0  0  0
  1  6  1  0  0  0  0
  1 11  1  0  0  0  0
  2  3  1  0  0  0  0
  3  4  1  0  0  0  0
  4  5  1  0  0  0  0
  4  7  1  0  0  0  0
  5  6  1  0  0  0  0
  7  8  1  0  0  0  0
  7 10  1  0  0  0  0
  8  9  1  0  0  0  0
  9 10  1  0  0  0  0
M  END
> <Index>
24477

> <PropertyFieldDistance>
nan

$$$$
9478872
BBcorina  12272117083D 1   1.00000     0.00000 
CORINA 4.3.0 0026  30.10.2019
 16 17  0  0  0  0  0  0  0  0999 V2000
  -34.7062    6.1881  -40.6818 F   0  0  0  0  0  0  0  0  0  0  0  0
  -34.9562    6.9432  -41.8326 C   0  0  0  0  0  0  0  0  0  0  0  0
  -33.7939    7.6286  -42.2022 F   0  0  0  0  0  0  0  0  0  0  0  0
  -35.9778    7.8633  -41.5739 F   0  0  0  0  0  0  0  0  0  0  0  0
  -35.3834    6.0133  -42.9700 C   0  0  0  0  0  0  0  0  0  0  0  0
  -36.6554    5.2624  -42.5667 C   0  0  0  0  0  0  0  0  0  0  0  0
  -37.0433    4.2897  -43.6828 C   0  0  0  0  0  0  0  0  0  0  0  0
  -35.9453    3.3417  -43.9110 N   0  0  0  0  0  0  0  0  0  0  0  0
  -34.7261    4.0356  -44.3451 C   0  0  0  0  0  0  0  0  0  0  0  0
  -34.2691    5.0007  -43.2489 C   0  0  0  0  0  0  0  0  0  0  0  0
  -36.3354    2.3075  -44.8786 C   0  0  0  0  0  0  0  0  0  0  0  0
  -35.2270    1.2802  -45.1627 C   0  0  0  0  0  0  0  0  0  0  0  0
  -35.6582    1.3362  -46.6377 C   0  0  0  0  0  0  0  0  0  0  0  0
  -36.1915    2.7489  -46.3466 C   0  0  0  0  0  0  0  0  0  0  0  0
  -36.7098    0.3695  -46.9805 N   0  0  0  0  0  0  0  0  0  0  0  0
  -38.1771    0.7545  -46.1914 X   0  0  0  0  0  0  0  0  0  0  0  0
  1  2  1  0  0  0  0
  2  3  1  0  0  0  0
  2  4  1  0  0  0  0
  2  5  1  0  0  0  0
  5  6  1  0  0  0  0
  5 10  1  0  0  0  0
  6  7  1  0  0  0  0
  7  8  1  0  0  0  0
  8  9  1  0  0  0  0
  8 11  1  0  0  0  0
  9 10  1  0  0  0  0
 11 12  1  0  0  0  0
 11 14  1  0  0  0  0
 12 13  1  0  0  0  0
 13 14  1  0  0  0  0
 13 15  1  0  0  0  0
 15 16  1  0  0  0  0
M  END
> <Index>
24482

> <PropertyFieldDistance>
nan

$$$$
15273932
BBcorina  12272117083D 1   1.00000     0.00000 
CORINA 4.3.0 0026  30.10.2019
  8  8  0  0  0  0  0  0  0  0999 V2000
  -36.0642    3.5302  -44.4138 N   0  0  0  0  0  0  0  0  0  0  0  0
  -36.9955    4.5501  -43.8664 C   0  0  0  0  0  0  0  0  0  0  0  0
  -36.4720    4.8297  -42.4413 C   0  0  0  0  0  0  0  0  0  0  0  0
  -34.9803    4.4382  -42.4781 C   0  0  0  0  0  0  0  0  0  0  0  0
  -34.7261    3.9531  -43.9215 C   0  0  0  0  0  0  0  0  0  0  0  0
  -34.1997    5.0522  -44.7472 C   0  0  0  0  0  0  0  0  0  0  0  0
  -33.7936    5.9004  -45.3844 N   0  0  0  0  0  0  0  0  0  0  0  0
  -36.1112    3.5121  -46.1231 X   0  0  0  0  0  0  0  0  0  0  0  0
  1  2  1  0  0  0  0
  1  5  1  0  0  0  0
  1  8  1  0  0  0  0
  2  3  1  0  0  0  0
  3  4  1  0  0  0  0
  4  5  1  0  0  0  0
  5  6  1  0  0  0  0
  6  7  3  0  0  0  0
M  END
> <Index>
24490

> <PropertyFieldDistance>
nan

$$$$
12108800
BBcorina  12272117083D 1   1.00000     0.00000 
CORINA 4.3.0 0026  30.10.2019
 10 11  0  0  0  0  0  0  0  0999 V2000
  -35.9671    3.7430  -44.4251 N   0  0  0  0  0  0  0  0  0  0  0  0
  -36.9568    4.6883  -43.8460 C   0  0  0  0  0  0  0  0  0  0  0  0
  -36.7908    4.5346  -42.3180 C   0  0  0  0  0  0  0  0  0  0  0  0
  -35.3563    4.0037  -42.1222 C   0  0  0  0  0  0  0  0  0  0  0  0
  -34.7754    3.8810  -43.5481 C   0  0  0  0  0  0  0  0  0  0  0  0
  -34.0971    5.2168  -43.9004 C   0  0  0  0  0  0  0  0  0  0  0  0
  -35.1133    6.3208  -43.6902 C   0  0  0  0  0  0  0  0  0  0  0  0
  -34.7911    7.4236  -43.0607 C   0  0  0  0  0  0  0  0  0  0  0  0
  -36.5151    6.1085  -44.2248 C   0  0  0  0  0  0  0  0  0  0  0  0
  -36.5635    2.1405  -44.4011 X   0  0  0  0  0  0  0  0  0  0  0  0
  1  2  1  0  0  0  0
  1  5  1  0  0  0  0
  1 10  1  0  0  0  0
  2  3  1  0  0  0  0
  2  9  1  0  0  0  0
  3  4  1  0  0  0  0
  4  5  1  0  0  0  0
  5  6  1  0  0  0  0
  6  7  1  0  0  0  0
  7  8  2  0  0  0  0
  7  9  1  0  0  0  0
M  END
> <Index>
24495

> <PropertyFieldDistance>
nan

$$$$
16924578
BBcorina  12272117083D 1   1.00000     0.00000 
CORINA 4.3.0 0026  30.10.2019
 10 10  0  0  0  0  0  0  0  0999 V2000
  -37.6835    6.1405  -42.1390 C   0  0  0  0  0  0  0  0  0  0  0  0
  -36.6101    5.1169  -42.5144 C   0  0  0  0  0  0  0  0  0  0  0  0
  -37.0250    4.3873  -43.7948 C   0  0  0  0  0  0  0  0  0  0  0  0
  -35.9554    3.4606  -44.1930 N   0  0  0  0  0  0  0  0  0  0  0  0
  -34.6941    4.1836  -44.4110 C   0  0  0  0  0  0  0  0  0  0  0  0
  -34.3026    4.9152  -43.1245 C   0  0  0  0  0  0  0  0  0  0  0  0
  -34.0474    3.8944  -42.0136 C   0  0  0  0  0  0  0  0  0  0  0  0
  -33.0328    5.7333  -43.3680 C   0  0  0  0  0  0  0  0  0  0  0  0
  -35.3661    5.7886  -42.7352 O   0  0  0  0  0  0  0  0  0  0  0  0
  -36.4010    2.5723  -45.5847 X   0  0  0  0  0  0  0  0  0  0  0  0
  1  2  1  0  0  0  0
  2  3  1  0  0  0  0
  2  9  1  0  0  0  0
  3  4  1  0  0  0  0
  4  5  1  0  0  0  0
  4 10  1  0  0  0  0
  5  6  1  0  0  0  0
  6  7  1  0  0  0  0
  6  8  1  0  0  0  0
  6  9  1  0  0  0  0
M  END
> <Index>
24498

> <PropertyFieldDistance>
nan

$$$$
